**************************************************
* OpenRAM generated memory.
* Words: 16
* Data bits: 8
* Banks: 1
* Column mux: 1:1
* Trimmed: False
* LVS: True
**************************************************
* Copyright 2020 The SkyWater PDK Authors
*
* Licensed under the Apache License, Version 2.0 (the "License");
* you may not use this file except in compliance with the License.
* You may obtain a copy of the License at
*
*     https://www.apache.org/licenses/LICENSE-2.0
*
* Unless required by applicable law or agreed to in writing, software
* distributed under the License is distributed on an "AS IS" BASIS,
* WITHOUT WARRANTIES OR CONDITIONS OF ANY KIND, either express or implied.
* See the License for the specific language governing permissions and
* limitations under the License.
*
* SPDX-License-Identifier: Apache-2.0

.SUBCKT sky130_fd_bd_sram__openram_dp_cell BL0 BR0 BL1 BR1 WL0 WL1 VDD GND

X0 Q WL1 BL1 GND sky130_fd_pr__special_nfet_latch W=0.21u L=0.15u m=1
X4 Q_bar WL1 BR1 GND sky130_fd_pr__special_nfet_latch W=0.21u L=0.15u m=1

X3 BL0 WL0 Q GND sky130_fd_pr__special_nfet_latch W=0.21u L=0.15u m=1
X7 BR0 WL0 Q_bar GND sky130_fd_pr__special_nfet_latch W=0.21u L=0.15u m=1

* Bitcell Core
X1 GND Q_bar Q GND sky130_fd_pr__special_nfet_latch W=0.21u L=0.15u m=1
X2 GND Q_bar Q GND sky130_fd_pr__special_nfet_latch W=0.21u L=0.15u m=1
X9 Q Q_bar VDD VDD sky130_fd_pr__special_pfet_pass W=0.14u L=0.15u m=1

X5 GND Q Q_bar GND sky130_fd_pr__special_nfet_latch W=0.21u L=0.15u m=1
X6 GND Q Q_bar GND sky130_fd_pr__special_nfet_latch W=0.21u L=0.15u m=1
X8 VDD Q Q_bar VDD sky130_fd_pr__special_pfet_pass W=0.14u L=0.15u m=1

* tap under poly
X10 GND GND BL1 GND sky130_fd_pr__special_nfet_latch w=0.21u l=0.08u m=1
X11 GND GND BR1 GND sky130_fd_pr__special_nfet_latch w=0.21u l=0.08u m=1

* drainOnly PMOS
X12 Q_bar WL1 Q_bar VDD sky130_fd_pr__special_pfet_pass W=0.07u L=0.15u m=1
X13 Q WL0 Q VDD sky130_fd_pr__special_pfet_pass W=0.07u L=0.15u m=1

* drainOnly NMOS
X14 GND GND BL1 GND sky130_fd_pr__special_nfet_latch w=0.21u l=0.08u m=1
X15 GND GND BR1 GND sky130_fd_pr__special_nfet_latch w=0.21u l=0.08u m=1


.ENDS

.SUBCKT bitcell_array bl_0_0 bl_1_0 br_0_0 br_1_0 bl_0_1 bl_1_1 br_0_1 br_1_1 bl_0_2 bl_1_2 br_0_2 br_1_2 bl_0_3 bl_1_3 br_0_3 br_1_3 bl_0_4 bl_1_4 br_0_4 br_1_4 bl_0_5 bl_1_5 br_0_5 br_1_5 bl_0_6 bl_1_6 br_0_6 br_1_6 bl_0_7 bl_1_7 br_0_7 br_1_7 wl_0_0 wl_1_0 wl_0_1 wl_1_1 wl_0_2 wl_1_2 wl_0_3 wl_1_3 wl_0_4 wl_1_4 wl_0_5 wl_1_5 wl_0_6 wl_1_6 wl_0_7 wl_1_7 wl_0_8 wl_1_8 wl_0_9 wl_1_9 wl_0_10 wl_1_10 wl_0_11 wl_1_11 wl_0_12 wl_1_12 wl_0_13 wl_1_13 wl_0_14 wl_1_14 wl_0_15 wl_1_15 vdd gnd
*.PININFO bl_0_0:B bl_1_0:B br_0_0:B br_1_0:B bl_0_1:B bl_1_1:B br_0_1:B br_1_1:B bl_0_2:B bl_1_2:B br_0_2:B br_1_2:B bl_0_3:B bl_1_3:B br_0_3:B br_1_3:B bl_0_4:B bl_1_4:B br_0_4:B br_1_4:B bl_0_5:B bl_1_5:B br_0_5:B br_1_5:B bl_0_6:B bl_1_6:B br_0_6:B br_1_6:B bl_0_7:B bl_1_7:B br_0_7:B br_1_7:B wl_0_0:I wl_1_0:I wl_0_1:I wl_1_1:I wl_0_2:I wl_1_2:I wl_0_3:I wl_1_3:I wl_0_4:I wl_1_4:I wl_0_5:I wl_1_5:I wl_0_6:I wl_1_6:I wl_0_7:I wl_1_7:I wl_0_8:I wl_1_8:I wl_0_9:I wl_1_9:I wl_0_10:I wl_1_10:I wl_0_11:I wl_1_11:I wl_0_12:I wl_1_12:I wl_0_13:I wl_1_13:I wl_0_14:I wl_1_14:I wl_0_15:I wl_1_15:I vdd:B gnd:B
* INOUT : bl_0_0 
* INOUT : bl_1_0 
* INOUT : br_0_0 
* INOUT : br_1_0 
* INOUT : bl_0_1 
* INOUT : bl_1_1 
* INOUT : br_0_1 
* INOUT : br_1_1 
* INOUT : bl_0_2 
* INOUT : bl_1_2 
* INOUT : br_0_2 
* INOUT : br_1_2 
* INOUT : bl_0_3 
* INOUT : bl_1_3 
* INOUT : br_0_3 
* INOUT : br_1_3 
* INOUT : bl_0_4 
* INOUT : bl_1_4 
* INOUT : br_0_4 
* INOUT : br_1_4 
* INOUT : bl_0_5 
* INOUT : bl_1_5 
* INOUT : br_0_5 
* INOUT : br_1_5 
* INOUT : bl_0_6 
* INOUT : bl_1_6 
* INOUT : br_0_6 
* INOUT : br_1_6 
* INOUT : bl_0_7 
* INOUT : bl_1_7 
* INOUT : br_0_7 
* INOUT : br_1_7 
* INPUT : wl_0_0 
* INPUT : wl_1_0 
* INPUT : wl_0_1 
* INPUT : wl_1_1 
* INPUT : wl_0_2 
* INPUT : wl_1_2 
* INPUT : wl_0_3 
* INPUT : wl_1_3 
* INPUT : wl_0_4 
* INPUT : wl_1_4 
* INPUT : wl_0_5 
* INPUT : wl_1_5 
* INPUT : wl_0_6 
* INPUT : wl_1_6 
* INPUT : wl_0_7 
* INPUT : wl_1_7 
* INPUT : wl_0_8 
* INPUT : wl_1_8 
* INPUT : wl_0_9 
* INPUT : wl_1_9 
* INPUT : wl_0_10 
* INPUT : wl_1_10 
* INPUT : wl_0_11 
* INPUT : wl_1_11 
* INPUT : wl_0_12 
* INPUT : wl_1_12 
* INPUT : wl_0_13 
* INPUT : wl_1_13 
* INPUT : wl_0_14 
* INPUT : wl_1_14 
* INPUT : wl_0_15 
* INPUT : wl_1_15 
* POWER : vdd 
* GROUND: gnd 
* rows: 16 cols: 8
Xbit_r0_c0 bl_0_0 br_0_0 bl_1_0 br_1_0 wl_0_0 wl_1_0 vdd gnd sky130_fd_bd_sram__openram_dp_cell
Xbit_r1_c0 bl_0_0 br_0_0 bl_1_0 br_1_0 wl_0_1 wl_1_1 vdd gnd sky130_fd_bd_sram__openram_dp_cell
Xbit_r2_c0 bl_0_0 br_0_0 bl_1_0 br_1_0 wl_0_2 wl_1_2 vdd gnd sky130_fd_bd_sram__openram_dp_cell
Xbit_r3_c0 bl_0_0 br_0_0 bl_1_0 br_1_0 wl_0_3 wl_1_3 vdd gnd sky130_fd_bd_sram__openram_dp_cell
Xbit_r4_c0 bl_0_0 br_0_0 bl_1_0 br_1_0 wl_0_4 wl_1_4 vdd gnd sky130_fd_bd_sram__openram_dp_cell
Xbit_r5_c0 bl_0_0 br_0_0 bl_1_0 br_1_0 wl_0_5 wl_1_5 vdd gnd sky130_fd_bd_sram__openram_dp_cell
Xbit_r6_c0 bl_0_0 br_0_0 bl_1_0 br_1_0 wl_0_6 wl_1_6 vdd gnd sky130_fd_bd_sram__openram_dp_cell
Xbit_r7_c0 bl_0_0 br_0_0 bl_1_0 br_1_0 wl_0_7 wl_1_7 vdd gnd sky130_fd_bd_sram__openram_dp_cell
Xbit_r8_c0 bl_0_0 br_0_0 bl_1_0 br_1_0 wl_0_8 wl_1_8 vdd gnd sky130_fd_bd_sram__openram_dp_cell
Xbit_r9_c0 bl_0_0 br_0_0 bl_1_0 br_1_0 wl_0_9 wl_1_9 vdd gnd sky130_fd_bd_sram__openram_dp_cell
Xbit_r10_c0 bl_0_0 br_0_0 bl_1_0 br_1_0 wl_0_10 wl_1_10 vdd gnd sky130_fd_bd_sram__openram_dp_cell
Xbit_r11_c0 bl_0_0 br_0_0 bl_1_0 br_1_0 wl_0_11 wl_1_11 vdd gnd sky130_fd_bd_sram__openram_dp_cell
Xbit_r12_c0 bl_0_0 br_0_0 bl_1_0 br_1_0 wl_0_12 wl_1_12 vdd gnd sky130_fd_bd_sram__openram_dp_cell
Xbit_r13_c0 bl_0_0 br_0_0 bl_1_0 br_1_0 wl_0_13 wl_1_13 vdd gnd sky130_fd_bd_sram__openram_dp_cell
Xbit_r14_c0 bl_0_0 br_0_0 bl_1_0 br_1_0 wl_0_14 wl_1_14 vdd gnd sky130_fd_bd_sram__openram_dp_cell
Xbit_r15_c0 bl_0_0 br_0_0 bl_1_0 br_1_0 wl_0_15 wl_1_15 vdd gnd sky130_fd_bd_sram__openram_dp_cell
Xbit_r0_c1 bl_0_1 br_0_1 bl_1_1 br_1_1 wl_0_0 wl_1_0 vdd gnd sky130_fd_bd_sram__openram_dp_cell
Xbit_r1_c1 bl_0_1 br_0_1 bl_1_1 br_1_1 wl_0_1 wl_1_1 vdd gnd sky130_fd_bd_sram__openram_dp_cell
Xbit_r2_c1 bl_0_1 br_0_1 bl_1_1 br_1_1 wl_0_2 wl_1_2 vdd gnd sky130_fd_bd_sram__openram_dp_cell
Xbit_r3_c1 bl_0_1 br_0_1 bl_1_1 br_1_1 wl_0_3 wl_1_3 vdd gnd sky130_fd_bd_sram__openram_dp_cell
Xbit_r4_c1 bl_0_1 br_0_1 bl_1_1 br_1_1 wl_0_4 wl_1_4 vdd gnd sky130_fd_bd_sram__openram_dp_cell
Xbit_r5_c1 bl_0_1 br_0_1 bl_1_1 br_1_1 wl_0_5 wl_1_5 vdd gnd sky130_fd_bd_sram__openram_dp_cell
Xbit_r6_c1 bl_0_1 br_0_1 bl_1_1 br_1_1 wl_0_6 wl_1_6 vdd gnd sky130_fd_bd_sram__openram_dp_cell
Xbit_r7_c1 bl_0_1 br_0_1 bl_1_1 br_1_1 wl_0_7 wl_1_7 vdd gnd sky130_fd_bd_sram__openram_dp_cell
Xbit_r8_c1 bl_0_1 br_0_1 bl_1_1 br_1_1 wl_0_8 wl_1_8 vdd gnd sky130_fd_bd_sram__openram_dp_cell
Xbit_r9_c1 bl_0_1 br_0_1 bl_1_1 br_1_1 wl_0_9 wl_1_9 vdd gnd sky130_fd_bd_sram__openram_dp_cell
Xbit_r10_c1 bl_0_1 br_0_1 bl_1_1 br_1_1 wl_0_10 wl_1_10 vdd gnd sky130_fd_bd_sram__openram_dp_cell
Xbit_r11_c1 bl_0_1 br_0_1 bl_1_1 br_1_1 wl_0_11 wl_1_11 vdd gnd sky130_fd_bd_sram__openram_dp_cell
Xbit_r12_c1 bl_0_1 br_0_1 bl_1_1 br_1_1 wl_0_12 wl_1_12 vdd gnd sky130_fd_bd_sram__openram_dp_cell
Xbit_r13_c1 bl_0_1 br_0_1 bl_1_1 br_1_1 wl_0_13 wl_1_13 vdd gnd sky130_fd_bd_sram__openram_dp_cell
Xbit_r14_c1 bl_0_1 br_0_1 bl_1_1 br_1_1 wl_0_14 wl_1_14 vdd gnd sky130_fd_bd_sram__openram_dp_cell
Xbit_r15_c1 bl_0_1 br_0_1 bl_1_1 br_1_1 wl_0_15 wl_1_15 vdd gnd sky130_fd_bd_sram__openram_dp_cell
Xbit_r0_c2 bl_0_2 br_0_2 bl_1_2 br_1_2 wl_0_0 wl_1_0 vdd gnd sky130_fd_bd_sram__openram_dp_cell
Xbit_r1_c2 bl_0_2 br_0_2 bl_1_2 br_1_2 wl_0_1 wl_1_1 vdd gnd sky130_fd_bd_sram__openram_dp_cell
Xbit_r2_c2 bl_0_2 br_0_2 bl_1_2 br_1_2 wl_0_2 wl_1_2 vdd gnd sky130_fd_bd_sram__openram_dp_cell
Xbit_r3_c2 bl_0_2 br_0_2 bl_1_2 br_1_2 wl_0_3 wl_1_3 vdd gnd sky130_fd_bd_sram__openram_dp_cell
Xbit_r4_c2 bl_0_2 br_0_2 bl_1_2 br_1_2 wl_0_4 wl_1_4 vdd gnd sky130_fd_bd_sram__openram_dp_cell
Xbit_r5_c2 bl_0_2 br_0_2 bl_1_2 br_1_2 wl_0_5 wl_1_5 vdd gnd sky130_fd_bd_sram__openram_dp_cell
Xbit_r6_c2 bl_0_2 br_0_2 bl_1_2 br_1_2 wl_0_6 wl_1_6 vdd gnd sky130_fd_bd_sram__openram_dp_cell
Xbit_r7_c2 bl_0_2 br_0_2 bl_1_2 br_1_2 wl_0_7 wl_1_7 vdd gnd sky130_fd_bd_sram__openram_dp_cell
Xbit_r8_c2 bl_0_2 br_0_2 bl_1_2 br_1_2 wl_0_8 wl_1_8 vdd gnd sky130_fd_bd_sram__openram_dp_cell
Xbit_r9_c2 bl_0_2 br_0_2 bl_1_2 br_1_2 wl_0_9 wl_1_9 vdd gnd sky130_fd_bd_sram__openram_dp_cell
Xbit_r10_c2 bl_0_2 br_0_2 bl_1_2 br_1_2 wl_0_10 wl_1_10 vdd gnd sky130_fd_bd_sram__openram_dp_cell
Xbit_r11_c2 bl_0_2 br_0_2 bl_1_2 br_1_2 wl_0_11 wl_1_11 vdd gnd sky130_fd_bd_sram__openram_dp_cell
Xbit_r12_c2 bl_0_2 br_0_2 bl_1_2 br_1_2 wl_0_12 wl_1_12 vdd gnd sky130_fd_bd_sram__openram_dp_cell
Xbit_r13_c2 bl_0_2 br_0_2 bl_1_2 br_1_2 wl_0_13 wl_1_13 vdd gnd sky130_fd_bd_sram__openram_dp_cell
Xbit_r14_c2 bl_0_2 br_0_2 bl_1_2 br_1_2 wl_0_14 wl_1_14 vdd gnd sky130_fd_bd_sram__openram_dp_cell
Xbit_r15_c2 bl_0_2 br_0_2 bl_1_2 br_1_2 wl_0_15 wl_1_15 vdd gnd sky130_fd_bd_sram__openram_dp_cell
Xbit_r0_c3 bl_0_3 br_0_3 bl_1_3 br_1_3 wl_0_0 wl_1_0 vdd gnd sky130_fd_bd_sram__openram_dp_cell
Xbit_r1_c3 bl_0_3 br_0_3 bl_1_3 br_1_3 wl_0_1 wl_1_1 vdd gnd sky130_fd_bd_sram__openram_dp_cell
Xbit_r2_c3 bl_0_3 br_0_3 bl_1_3 br_1_3 wl_0_2 wl_1_2 vdd gnd sky130_fd_bd_sram__openram_dp_cell
Xbit_r3_c3 bl_0_3 br_0_3 bl_1_3 br_1_3 wl_0_3 wl_1_3 vdd gnd sky130_fd_bd_sram__openram_dp_cell
Xbit_r4_c3 bl_0_3 br_0_3 bl_1_3 br_1_3 wl_0_4 wl_1_4 vdd gnd sky130_fd_bd_sram__openram_dp_cell
Xbit_r5_c3 bl_0_3 br_0_3 bl_1_3 br_1_3 wl_0_5 wl_1_5 vdd gnd sky130_fd_bd_sram__openram_dp_cell
Xbit_r6_c3 bl_0_3 br_0_3 bl_1_3 br_1_3 wl_0_6 wl_1_6 vdd gnd sky130_fd_bd_sram__openram_dp_cell
Xbit_r7_c3 bl_0_3 br_0_3 bl_1_3 br_1_3 wl_0_7 wl_1_7 vdd gnd sky130_fd_bd_sram__openram_dp_cell
Xbit_r8_c3 bl_0_3 br_0_3 bl_1_3 br_1_3 wl_0_8 wl_1_8 vdd gnd sky130_fd_bd_sram__openram_dp_cell
Xbit_r9_c3 bl_0_3 br_0_3 bl_1_3 br_1_3 wl_0_9 wl_1_9 vdd gnd sky130_fd_bd_sram__openram_dp_cell
Xbit_r10_c3 bl_0_3 br_0_3 bl_1_3 br_1_3 wl_0_10 wl_1_10 vdd gnd sky130_fd_bd_sram__openram_dp_cell
Xbit_r11_c3 bl_0_3 br_0_3 bl_1_3 br_1_3 wl_0_11 wl_1_11 vdd gnd sky130_fd_bd_sram__openram_dp_cell
Xbit_r12_c3 bl_0_3 br_0_3 bl_1_3 br_1_3 wl_0_12 wl_1_12 vdd gnd sky130_fd_bd_sram__openram_dp_cell
Xbit_r13_c3 bl_0_3 br_0_3 bl_1_3 br_1_3 wl_0_13 wl_1_13 vdd gnd sky130_fd_bd_sram__openram_dp_cell
Xbit_r14_c3 bl_0_3 br_0_3 bl_1_3 br_1_3 wl_0_14 wl_1_14 vdd gnd sky130_fd_bd_sram__openram_dp_cell
Xbit_r15_c3 bl_0_3 br_0_3 bl_1_3 br_1_3 wl_0_15 wl_1_15 vdd gnd sky130_fd_bd_sram__openram_dp_cell
Xbit_r0_c4 bl_0_4 br_0_4 bl_1_4 br_1_4 wl_0_0 wl_1_0 vdd gnd sky130_fd_bd_sram__openram_dp_cell
Xbit_r1_c4 bl_0_4 br_0_4 bl_1_4 br_1_4 wl_0_1 wl_1_1 vdd gnd sky130_fd_bd_sram__openram_dp_cell
Xbit_r2_c4 bl_0_4 br_0_4 bl_1_4 br_1_4 wl_0_2 wl_1_2 vdd gnd sky130_fd_bd_sram__openram_dp_cell
Xbit_r3_c4 bl_0_4 br_0_4 bl_1_4 br_1_4 wl_0_3 wl_1_3 vdd gnd sky130_fd_bd_sram__openram_dp_cell
Xbit_r4_c4 bl_0_4 br_0_4 bl_1_4 br_1_4 wl_0_4 wl_1_4 vdd gnd sky130_fd_bd_sram__openram_dp_cell
Xbit_r5_c4 bl_0_4 br_0_4 bl_1_4 br_1_4 wl_0_5 wl_1_5 vdd gnd sky130_fd_bd_sram__openram_dp_cell
Xbit_r6_c4 bl_0_4 br_0_4 bl_1_4 br_1_4 wl_0_6 wl_1_6 vdd gnd sky130_fd_bd_sram__openram_dp_cell
Xbit_r7_c4 bl_0_4 br_0_4 bl_1_4 br_1_4 wl_0_7 wl_1_7 vdd gnd sky130_fd_bd_sram__openram_dp_cell
Xbit_r8_c4 bl_0_4 br_0_4 bl_1_4 br_1_4 wl_0_8 wl_1_8 vdd gnd sky130_fd_bd_sram__openram_dp_cell
Xbit_r9_c4 bl_0_4 br_0_4 bl_1_4 br_1_4 wl_0_9 wl_1_9 vdd gnd sky130_fd_bd_sram__openram_dp_cell
Xbit_r10_c4 bl_0_4 br_0_4 bl_1_4 br_1_4 wl_0_10 wl_1_10 vdd gnd sky130_fd_bd_sram__openram_dp_cell
Xbit_r11_c4 bl_0_4 br_0_4 bl_1_4 br_1_4 wl_0_11 wl_1_11 vdd gnd sky130_fd_bd_sram__openram_dp_cell
Xbit_r12_c4 bl_0_4 br_0_4 bl_1_4 br_1_4 wl_0_12 wl_1_12 vdd gnd sky130_fd_bd_sram__openram_dp_cell
Xbit_r13_c4 bl_0_4 br_0_4 bl_1_4 br_1_4 wl_0_13 wl_1_13 vdd gnd sky130_fd_bd_sram__openram_dp_cell
Xbit_r14_c4 bl_0_4 br_0_4 bl_1_4 br_1_4 wl_0_14 wl_1_14 vdd gnd sky130_fd_bd_sram__openram_dp_cell
Xbit_r15_c4 bl_0_4 br_0_4 bl_1_4 br_1_4 wl_0_15 wl_1_15 vdd gnd sky130_fd_bd_sram__openram_dp_cell
Xbit_r0_c5 bl_0_5 br_0_5 bl_1_5 br_1_5 wl_0_0 wl_1_0 vdd gnd sky130_fd_bd_sram__openram_dp_cell
Xbit_r1_c5 bl_0_5 br_0_5 bl_1_5 br_1_5 wl_0_1 wl_1_1 vdd gnd sky130_fd_bd_sram__openram_dp_cell
Xbit_r2_c5 bl_0_5 br_0_5 bl_1_5 br_1_5 wl_0_2 wl_1_2 vdd gnd sky130_fd_bd_sram__openram_dp_cell
Xbit_r3_c5 bl_0_5 br_0_5 bl_1_5 br_1_5 wl_0_3 wl_1_3 vdd gnd sky130_fd_bd_sram__openram_dp_cell
Xbit_r4_c5 bl_0_5 br_0_5 bl_1_5 br_1_5 wl_0_4 wl_1_4 vdd gnd sky130_fd_bd_sram__openram_dp_cell
Xbit_r5_c5 bl_0_5 br_0_5 bl_1_5 br_1_5 wl_0_5 wl_1_5 vdd gnd sky130_fd_bd_sram__openram_dp_cell
Xbit_r6_c5 bl_0_5 br_0_5 bl_1_5 br_1_5 wl_0_6 wl_1_6 vdd gnd sky130_fd_bd_sram__openram_dp_cell
Xbit_r7_c5 bl_0_5 br_0_5 bl_1_5 br_1_5 wl_0_7 wl_1_7 vdd gnd sky130_fd_bd_sram__openram_dp_cell
Xbit_r8_c5 bl_0_5 br_0_5 bl_1_5 br_1_5 wl_0_8 wl_1_8 vdd gnd sky130_fd_bd_sram__openram_dp_cell
Xbit_r9_c5 bl_0_5 br_0_5 bl_1_5 br_1_5 wl_0_9 wl_1_9 vdd gnd sky130_fd_bd_sram__openram_dp_cell
Xbit_r10_c5 bl_0_5 br_0_5 bl_1_5 br_1_5 wl_0_10 wl_1_10 vdd gnd sky130_fd_bd_sram__openram_dp_cell
Xbit_r11_c5 bl_0_5 br_0_5 bl_1_5 br_1_5 wl_0_11 wl_1_11 vdd gnd sky130_fd_bd_sram__openram_dp_cell
Xbit_r12_c5 bl_0_5 br_0_5 bl_1_5 br_1_5 wl_0_12 wl_1_12 vdd gnd sky130_fd_bd_sram__openram_dp_cell
Xbit_r13_c5 bl_0_5 br_0_5 bl_1_5 br_1_5 wl_0_13 wl_1_13 vdd gnd sky130_fd_bd_sram__openram_dp_cell
Xbit_r14_c5 bl_0_5 br_0_5 bl_1_5 br_1_5 wl_0_14 wl_1_14 vdd gnd sky130_fd_bd_sram__openram_dp_cell
Xbit_r15_c5 bl_0_5 br_0_5 bl_1_5 br_1_5 wl_0_15 wl_1_15 vdd gnd sky130_fd_bd_sram__openram_dp_cell
Xbit_r0_c6 bl_0_6 br_0_6 bl_1_6 br_1_6 wl_0_0 wl_1_0 vdd gnd sky130_fd_bd_sram__openram_dp_cell
Xbit_r1_c6 bl_0_6 br_0_6 bl_1_6 br_1_6 wl_0_1 wl_1_1 vdd gnd sky130_fd_bd_sram__openram_dp_cell
Xbit_r2_c6 bl_0_6 br_0_6 bl_1_6 br_1_6 wl_0_2 wl_1_2 vdd gnd sky130_fd_bd_sram__openram_dp_cell
Xbit_r3_c6 bl_0_6 br_0_6 bl_1_6 br_1_6 wl_0_3 wl_1_3 vdd gnd sky130_fd_bd_sram__openram_dp_cell
Xbit_r4_c6 bl_0_6 br_0_6 bl_1_6 br_1_6 wl_0_4 wl_1_4 vdd gnd sky130_fd_bd_sram__openram_dp_cell
Xbit_r5_c6 bl_0_6 br_0_6 bl_1_6 br_1_6 wl_0_5 wl_1_5 vdd gnd sky130_fd_bd_sram__openram_dp_cell
Xbit_r6_c6 bl_0_6 br_0_6 bl_1_6 br_1_6 wl_0_6 wl_1_6 vdd gnd sky130_fd_bd_sram__openram_dp_cell
Xbit_r7_c6 bl_0_6 br_0_6 bl_1_6 br_1_6 wl_0_7 wl_1_7 vdd gnd sky130_fd_bd_sram__openram_dp_cell
Xbit_r8_c6 bl_0_6 br_0_6 bl_1_6 br_1_6 wl_0_8 wl_1_8 vdd gnd sky130_fd_bd_sram__openram_dp_cell
Xbit_r9_c6 bl_0_6 br_0_6 bl_1_6 br_1_6 wl_0_9 wl_1_9 vdd gnd sky130_fd_bd_sram__openram_dp_cell
Xbit_r10_c6 bl_0_6 br_0_6 bl_1_6 br_1_6 wl_0_10 wl_1_10 vdd gnd sky130_fd_bd_sram__openram_dp_cell
Xbit_r11_c6 bl_0_6 br_0_6 bl_1_6 br_1_6 wl_0_11 wl_1_11 vdd gnd sky130_fd_bd_sram__openram_dp_cell
Xbit_r12_c6 bl_0_6 br_0_6 bl_1_6 br_1_6 wl_0_12 wl_1_12 vdd gnd sky130_fd_bd_sram__openram_dp_cell
Xbit_r13_c6 bl_0_6 br_0_6 bl_1_6 br_1_6 wl_0_13 wl_1_13 vdd gnd sky130_fd_bd_sram__openram_dp_cell
Xbit_r14_c6 bl_0_6 br_0_6 bl_1_6 br_1_6 wl_0_14 wl_1_14 vdd gnd sky130_fd_bd_sram__openram_dp_cell
Xbit_r15_c6 bl_0_6 br_0_6 bl_1_6 br_1_6 wl_0_15 wl_1_15 vdd gnd sky130_fd_bd_sram__openram_dp_cell
Xbit_r0_c7 bl_0_7 br_0_7 bl_1_7 br_1_7 wl_0_0 wl_1_0 vdd gnd sky130_fd_bd_sram__openram_dp_cell
Xbit_r1_c7 bl_0_7 br_0_7 bl_1_7 br_1_7 wl_0_1 wl_1_1 vdd gnd sky130_fd_bd_sram__openram_dp_cell
Xbit_r2_c7 bl_0_7 br_0_7 bl_1_7 br_1_7 wl_0_2 wl_1_2 vdd gnd sky130_fd_bd_sram__openram_dp_cell
Xbit_r3_c7 bl_0_7 br_0_7 bl_1_7 br_1_7 wl_0_3 wl_1_3 vdd gnd sky130_fd_bd_sram__openram_dp_cell
Xbit_r4_c7 bl_0_7 br_0_7 bl_1_7 br_1_7 wl_0_4 wl_1_4 vdd gnd sky130_fd_bd_sram__openram_dp_cell
Xbit_r5_c7 bl_0_7 br_0_7 bl_1_7 br_1_7 wl_0_5 wl_1_5 vdd gnd sky130_fd_bd_sram__openram_dp_cell
Xbit_r6_c7 bl_0_7 br_0_7 bl_1_7 br_1_7 wl_0_6 wl_1_6 vdd gnd sky130_fd_bd_sram__openram_dp_cell
Xbit_r7_c7 bl_0_7 br_0_7 bl_1_7 br_1_7 wl_0_7 wl_1_7 vdd gnd sky130_fd_bd_sram__openram_dp_cell
Xbit_r8_c7 bl_0_7 br_0_7 bl_1_7 br_1_7 wl_0_8 wl_1_8 vdd gnd sky130_fd_bd_sram__openram_dp_cell
Xbit_r9_c7 bl_0_7 br_0_7 bl_1_7 br_1_7 wl_0_9 wl_1_9 vdd gnd sky130_fd_bd_sram__openram_dp_cell
Xbit_r10_c7 bl_0_7 br_0_7 bl_1_7 br_1_7 wl_0_10 wl_1_10 vdd gnd sky130_fd_bd_sram__openram_dp_cell
Xbit_r11_c7 bl_0_7 br_0_7 bl_1_7 br_1_7 wl_0_11 wl_1_11 vdd gnd sky130_fd_bd_sram__openram_dp_cell
Xbit_r12_c7 bl_0_7 br_0_7 bl_1_7 br_1_7 wl_0_12 wl_1_12 vdd gnd sky130_fd_bd_sram__openram_dp_cell
Xbit_r13_c7 bl_0_7 br_0_7 bl_1_7 br_1_7 wl_0_13 wl_1_13 vdd gnd sky130_fd_bd_sram__openram_dp_cell
Xbit_r14_c7 bl_0_7 br_0_7 bl_1_7 br_1_7 wl_0_14 wl_1_14 vdd gnd sky130_fd_bd_sram__openram_dp_cell
Xbit_r15_c7 bl_0_7 br_0_7 bl_1_7 br_1_7 wl_0_15 wl_1_15 vdd gnd sky130_fd_bd_sram__openram_dp_cell
.ENDS bitcell_array
* Copyright 2020 The SkyWater PDK Authors
*
* Licensed under the Apache License, Version 2.0 (the "License");
* you may not use this file except in compliance with the License.
* You may obtain a copy of the License at
*
*     https://www.apache.org/licenses/LICENSE-2.0
*
* Unless required by applicable law or agreed to in writing, software
* distributed under the License is distributed on an "AS IS" BASIS,
* WITHOUT WARRANTIES OR CONDITIONS OF ANY KIND, either express or implied.
* See the License for the specific language governing permissions and
* limitations under the License.
*
* SPDX-License-Identifier: Apache-2.0

* Ingore first line
.SUBCKT sky130_fd_bd_sram__openram_dp_cell_replica BL0 BR0 BL1 BR1 WL0 WL1 VDD GND

* Bitcell Core
X0 Q WL1 BL1 GND sky130_fd_pr__special_nfet_latch W=0.21u L=0.15u m=1
X1 GND VDD Q GND sky130_fd_pr__special_nfet_latch W=0.21u L=0.15u m=1
X2 GND VDD Q GND sky130_fd_pr__special_nfet_latch W=0.21u L=0.15u m=1
X3 BL0 WL0 Q GND sky130_fd_pr__special_nfet_latch W=0.21u L=0.15u m=1
X4 VDD WL1 BR1 GND sky130_fd_pr__special_nfet_latch W=0.21u L=0.15u m=1
X5 GND Q VDD GND sky130_fd_pr__special_nfet_latch W=0.21u L=0.15u m=1
X6 GND Q VDD GND sky130_fd_pr__special_nfet_latch W=0.21u L=0.15u m=1
X7 BR0 WL0 VDD GND sky130_fd_pr__special_nfet_latch W=0.21u L=0.15u m=1
X8 VDD Q VDD VDD sky130_fd_pr__special_pfet_pass W=0.14u L=0.15u m=1
X9 Q VDD VDD VDD sky130_fd_pr__special_pfet_pass W=0.14u L=0.15u m=1

* tap under poly
X10 GND GND BL1 GND sky130_fd_pr__special_nfet_latch w=0.21u l=0.08u m=1
X11 GND GND BR1 GND sky130_fd_pr__special_nfet_latch w=0.21u l=0.08u m=1

* drainOnly PMOS
X12 Q WL0 Q VDD sky130_fd_pr__special_pfet_pass w=0.07u l=0.15u m=1
X13 VDD WL1 VDD VDD sky130_fd_pr__special_pfet_pass w=0.07u l=0.15u m=1

* drainOnly NMOS
X14 GND GND BL1 GND sky130_fd_pr__special_nfet_latch w=0.21u l=0.08u m=1
X15 GND GND BR1 GND sky130_fd_pr__special_nfet_latch w=0.21u l=0.08u m=1

.ENDS
* Copyright 2020 The SkyWater PDK Authors
*
* Licensed under the Apache License, Version 2.0 (the "License");
* you may not use this file except in compliance with the License.
* You may obtain a copy of the License at
*
*     https://www.apache.org/licenses/LICENSE-2.0
*
* Unless required by applicable law or agreed to in writing, software
* distributed under the License is distributed on an "AS IS" BASIS,
* WITHOUT WARRANTIES OR CONDITIONS OF ANY KIND, either express or implied.
* See the License for the specific language governing permissions and
* limitations under the License.
*
* SPDX-License-Identifier: Apache-2.0

.SUBCKT sky130_fd_bd_sram__openram_dp_cell_dummy BL0 BR0 BL1 BR1 WL0 WL1 VDD GND

* Bitcell Core
X1 1 GND GND GND sky130_fd_pr__special_nfet_latch W=0.21u L=0.15u m=1
X2 1 WL1 BL1 GND sky130_fd_pr__special_nfet_latch W=0.21u L=0.15u m=1
X3 2 GND GND GND sky130_fd_pr__special_nfet_latch W=0.21u L=0.15u m=1
X4 2 WL1 BR1 GND sky130_fd_pr__special_nfet_latch W=0.21u L=0.15u m=1
X5 3 GND GND GND sky130_fd_pr__special_nfet_latch W=0.21u L=0.15u m=1
X6 3 WL0 BL0 GND sky130_fd_pr__special_nfet_latch W=0.21u L=0.15u m=1
X7 4 GND GND GND sky130_fd_pr__special_nfet_latch W=0.21u L=0.15u m=1
X8 4 WL0 BR0 GND sky130_fd_pr__special_nfet_latch W=0.21u L=0.15u m=1

* tap under poly
X9 GND GND BL1 GND sky130_fd_pr__special_nfet_latch w=0.21u l=0.08u m=1
X10 GND GND BR1 GND sky130_fd_pr__special_nfet_latch w=0.21u l=0.08u m=1

* drainOnly NMOS
X11 GND GND BL1 GND sky130_fd_pr__special_nfet_latch w=0.21u l=0.08u m=1
X12 GND GND BR1 GND sky130_fd_pr__special_nfet_latch w=0.21u l=0.08u m=1

.ENDS

.SUBCKT replica_column bl_0_0 bl_1_0 br_0_0 br_1_0 wl_0_0 wl_1_0 wl_0_1 wl_1_1 wl_0_2 wl_1_2 wl_0_3 wl_1_3 wl_0_4 wl_1_4 wl_0_5 wl_1_5 wl_0_6 wl_1_6 wl_0_7 wl_1_7 wl_0_8 wl_1_8 wl_0_9 wl_1_9 wl_0_10 wl_1_10 wl_0_11 wl_1_11 wl_0_12 wl_1_12 wl_0_13 wl_1_13 wl_0_14 wl_1_14 wl_0_15 wl_1_15 wl_0_16 wl_1_16 wl_0_17 wl_1_17 vdd gnd
*.PININFO bl_0_0:O bl_1_0:O br_0_0:O br_1_0:O wl_0_0:I wl_1_0:I wl_0_1:I wl_1_1:I wl_0_2:I wl_1_2:I wl_0_3:I wl_1_3:I wl_0_4:I wl_1_4:I wl_0_5:I wl_1_5:I wl_0_6:I wl_1_6:I wl_0_7:I wl_1_7:I wl_0_8:I wl_1_8:I wl_0_9:I wl_1_9:I wl_0_10:I wl_1_10:I wl_0_11:I wl_1_11:I wl_0_12:I wl_1_12:I wl_0_13:I wl_1_13:I wl_0_14:I wl_1_14:I wl_0_15:I wl_1_15:I wl_0_16:I wl_1_16:I wl_0_17:I wl_1_17:I vdd:B gnd:B
* OUTPUT: bl_0_0 
* OUTPUT: bl_1_0 
* OUTPUT: br_0_0 
* OUTPUT: br_1_0 
* INPUT : wl_0_0 
* INPUT : wl_1_0 
* INPUT : wl_0_1 
* INPUT : wl_1_1 
* INPUT : wl_0_2 
* INPUT : wl_1_2 
* INPUT : wl_0_3 
* INPUT : wl_1_3 
* INPUT : wl_0_4 
* INPUT : wl_1_4 
* INPUT : wl_0_5 
* INPUT : wl_1_5 
* INPUT : wl_0_6 
* INPUT : wl_1_6 
* INPUT : wl_0_7 
* INPUT : wl_1_7 
* INPUT : wl_0_8 
* INPUT : wl_1_8 
* INPUT : wl_0_9 
* INPUT : wl_1_9 
* INPUT : wl_0_10 
* INPUT : wl_1_10 
* INPUT : wl_0_11 
* INPUT : wl_1_11 
* INPUT : wl_0_12 
* INPUT : wl_1_12 
* INPUT : wl_0_13 
* INPUT : wl_1_13 
* INPUT : wl_0_14 
* INPUT : wl_1_14 
* INPUT : wl_0_15 
* INPUT : wl_1_15 
* INPUT : wl_0_16 
* INPUT : wl_1_16 
* INPUT : wl_0_17 
* INPUT : wl_1_17 
* POWER : vdd 
* GROUND: gnd 
Xrbc_1 bl_0_0 br_0_0 bl_1_0 br_1_0 wl_0_0 wl_1_0 vdd gnd sky130_fd_bd_sram__openram_dp_cell_replica
Xrbc_2 bl_0_0 br_0_0 bl_1_0 br_1_0 wl_0_1 wl_1_1 vdd gnd sky130_fd_bd_sram__openram_dp_cell_replica
Xrbc_3 bl_0_0 br_0_0 bl_1_0 br_1_0 wl_0_2 wl_1_2 vdd gnd sky130_fd_bd_sram__openram_dp_cell_replica
Xrbc_4 bl_0_0 br_0_0 bl_1_0 br_1_0 wl_0_3 wl_1_3 vdd gnd sky130_fd_bd_sram__openram_dp_cell_replica
Xrbc_5 bl_0_0 br_0_0 bl_1_0 br_1_0 wl_0_4 wl_1_4 vdd gnd sky130_fd_bd_sram__openram_dp_cell_replica
Xrbc_6 bl_0_0 br_0_0 bl_1_0 br_1_0 wl_0_5 wl_1_5 vdd gnd sky130_fd_bd_sram__openram_dp_cell_replica
Xrbc_7 bl_0_0 br_0_0 bl_1_0 br_1_0 wl_0_6 wl_1_6 vdd gnd sky130_fd_bd_sram__openram_dp_cell_replica
Xrbc_8 bl_0_0 br_0_0 bl_1_0 br_1_0 wl_0_7 wl_1_7 vdd gnd sky130_fd_bd_sram__openram_dp_cell_replica
Xrbc_9 bl_0_0 br_0_0 bl_1_0 br_1_0 wl_0_8 wl_1_8 vdd gnd sky130_fd_bd_sram__openram_dp_cell_replica
Xrbc_10 bl_0_0 br_0_0 bl_1_0 br_1_0 wl_0_9 wl_1_9 vdd gnd sky130_fd_bd_sram__openram_dp_cell_replica
Xrbc_11 bl_0_0 br_0_0 bl_1_0 br_1_0 wl_0_10 wl_1_10 vdd gnd sky130_fd_bd_sram__openram_dp_cell_replica
Xrbc_12 bl_0_0 br_0_0 bl_1_0 br_1_0 wl_0_11 wl_1_11 vdd gnd sky130_fd_bd_sram__openram_dp_cell_replica
Xrbc_13 bl_0_0 br_0_0 bl_1_0 br_1_0 wl_0_12 wl_1_12 vdd gnd sky130_fd_bd_sram__openram_dp_cell_replica
Xrbc_14 bl_0_0 br_0_0 bl_1_0 br_1_0 wl_0_13 wl_1_13 vdd gnd sky130_fd_bd_sram__openram_dp_cell_replica
Xrbc_15 bl_0_0 br_0_0 bl_1_0 br_1_0 wl_0_14 wl_1_14 vdd gnd sky130_fd_bd_sram__openram_dp_cell_replica
Xrbc_16 bl_0_0 br_0_0 bl_1_0 br_1_0 wl_0_15 wl_1_15 vdd gnd sky130_fd_bd_sram__openram_dp_cell_replica
Xrbc_17 bl_0_0 br_0_0 bl_1_0 br_1_0 wl_0_16 wl_1_16 vdd gnd sky130_fd_bd_sram__openram_dp_cell_replica
Xrbc_18 bl_0_0 br_0_0 bl_1_0 br_1_0 wl_0_17 wl_1_17 vdd gnd sky130_fd_bd_sram__openram_dp_cell_dummy
.ENDS replica_column

.SUBCKT replica_column_0 bl_0_0 bl_1_0 br_0_0 br_1_0 wl_0_0 wl_1_0 wl_0_1 wl_1_1 wl_0_2 wl_1_2 wl_0_3 wl_1_3 wl_0_4 wl_1_4 wl_0_5 wl_1_5 wl_0_6 wl_1_6 wl_0_7 wl_1_7 wl_0_8 wl_1_8 wl_0_9 wl_1_9 wl_0_10 wl_1_10 wl_0_11 wl_1_11 wl_0_12 wl_1_12 wl_0_13 wl_1_13 wl_0_14 wl_1_14 wl_0_15 wl_1_15 wl_0_16 wl_1_16 wl_0_17 wl_1_17 vdd gnd
*.PININFO bl_0_0:O bl_1_0:O br_0_0:O br_1_0:O wl_0_0:I wl_1_0:I wl_0_1:I wl_1_1:I wl_0_2:I wl_1_2:I wl_0_3:I wl_1_3:I wl_0_4:I wl_1_4:I wl_0_5:I wl_1_5:I wl_0_6:I wl_1_6:I wl_0_7:I wl_1_7:I wl_0_8:I wl_1_8:I wl_0_9:I wl_1_9:I wl_0_10:I wl_1_10:I wl_0_11:I wl_1_11:I wl_0_12:I wl_1_12:I wl_0_13:I wl_1_13:I wl_0_14:I wl_1_14:I wl_0_15:I wl_1_15:I wl_0_16:I wl_1_16:I wl_0_17:I wl_1_17:I vdd:B gnd:B
* OUTPUT: bl_0_0 
* OUTPUT: bl_1_0 
* OUTPUT: br_0_0 
* OUTPUT: br_1_0 
* INPUT : wl_0_0 
* INPUT : wl_1_0 
* INPUT : wl_0_1 
* INPUT : wl_1_1 
* INPUT : wl_0_2 
* INPUT : wl_1_2 
* INPUT : wl_0_3 
* INPUT : wl_1_3 
* INPUT : wl_0_4 
* INPUT : wl_1_4 
* INPUT : wl_0_5 
* INPUT : wl_1_5 
* INPUT : wl_0_6 
* INPUT : wl_1_6 
* INPUT : wl_0_7 
* INPUT : wl_1_7 
* INPUT : wl_0_8 
* INPUT : wl_1_8 
* INPUT : wl_0_9 
* INPUT : wl_1_9 
* INPUT : wl_0_10 
* INPUT : wl_1_10 
* INPUT : wl_0_11 
* INPUT : wl_1_11 
* INPUT : wl_0_12 
* INPUT : wl_1_12 
* INPUT : wl_0_13 
* INPUT : wl_1_13 
* INPUT : wl_0_14 
* INPUT : wl_1_14 
* INPUT : wl_0_15 
* INPUT : wl_1_15 
* INPUT : wl_0_16 
* INPUT : wl_1_16 
* INPUT : wl_0_17 
* INPUT : wl_1_17 
* POWER : vdd 
* GROUND: gnd 
Xrbc_1 bl_0_0 br_0_0 bl_1_0 br_1_0 wl_0_0 wl_1_0 vdd gnd sky130_fd_bd_sram__openram_dp_cell_dummy
Xrbc_2 bl_0_0 br_0_0 bl_1_0 br_1_0 wl_0_1 wl_1_1 vdd gnd sky130_fd_bd_sram__openram_dp_cell_replica
Xrbc_3 bl_0_0 br_0_0 bl_1_0 br_1_0 wl_0_2 wl_1_2 vdd gnd sky130_fd_bd_sram__openram_dp_cell_replica
Xrbc_4 bl_0_0 br_0_0 bl_1_0 br_1_0 wl_0_3 wl_1_3 vdd gnd sky130_fd_bd_sram__openram_dp_cell_replica
Xrbc_5 bl_0_0 br_0_0 bl_1_0 br_1_0 wl_0_4 wl_1_4 vdd gnd sky130_fd_bd_sram__openram_dp_cell_replica
Xrbc_6 bl_0_0 br_0_0 bl_1_0 br_1_0 wl_0_5 wl_1_5 vdd gnd sky130_fd_bd_sram__openram_dp_cell_replica
Xrbc_7 bl_0_0 br_0_0 bl_1_0 br_1_0 wl_0_6 wl_1_6 vdd gnd sky130_fd_bd_sram__openram_dp_cell_replica
Xrbc_8 bl_0_0 br_0_0 bl_1_0 br_1_0 wl_0_7 wl_1_7 vdd gnd sky130_fd_bd_sram__openram_dp_cell_replica
Xrbc_9 bl_0_0 br_0_0 bl_1_0 br_1_0 wl_0_8 wl_1_8 vdd gnd sky130_fd_bd_sram__openram_dp_cell_replica
Xrbc_10 bl_0_0 br_0_0 bl_1_0 br_1_0 wl_0_9 wl_1_9 vdd gnd sky130_fd_bd_sram__openram_dp_cell_replica
Xrbc_11 bl_0_0 br_0_0 bl_1_0 br_1_0 wl_0_10 wl_1_10 vdd gnd sky130_fd_bd_sram__openram_dp_cell_replica
Xrbc_12 bl_0_0 br_0_0 bl_1_0 br_1_0 wl_0_11 wl_1_11 vdd gnd sky130_fd_bd_sram__openram_dp_cell_replica
Xrbc_13 bl_0_0 br_0_0 bl_1_0 br_1_0 wl_0_12 wl_1_12 vdd gnd sky130_fd_bd_sram__openram_dp_cell_replica
Xrbc_14 bl_0_0 br_0_0 bl_1_0 br_1_0 wl_0_13 wl_1_13 vdd gnd sky130_fd_bd_sram__openram_dp_cell_replica
Xrbc_15 bl_0_0 br_0_0 bl_1_0 br_1_0 wl_0_14 wl_1_14 vdd gnd sky130_fd_bd_sram__openram_dp_cell_replica
Xrbc_16 bl_0_0 br_0_0 bl_1_0 br_1_0 wl_0_15 wl_1_15 vdd gnd sky130_fd_bd_sram__openram_dp_cell_replica
Xrbc_17 bl_0_0 br_0_0 bl_1_0 br_1_0 wl_0_16 wl_1_16 vdd gnd sky130_fd_bd_sram__openram_dp_cell_replica
Xrbc_18 bl_0_0 br_0_0 bl_1_0 br_1_0 wl_0_17 wl_1_17 vdd gnd sky130_fd_bd_sram__openram_dp_cell_replica
.ENDS replica_column_0

.SUBCKT dummy_array bl_0_0 bl_1_0 br_0_0 br_1_0 bl_0_1 bl_1_1 br_0_1 br_1_1 bl_0_2 bl_1_2 br_0_2 br_1_2 bl_0_3 bl_1_3 br_0_3 br_1_3 bl_0_4 bl_1_4 br_0_4 br_1_4 bl_0_5 bl_1_5 br_0_5 br_1_5 bl_0_6 bl_1_6 br_0_6 br_1_6 bl_0_7 bl_1_7 br_0_7 br_1_7 wl_0_0 wl_1_0 vdd gnd
*.PININFO bl_0_0:B bl_1_0:B br_0_0:B br_1_0:B bl_0_1:B bl_1_1:B br_0_1:B br_1_1:B bl_0_2:B bl_1_2:B br_0_2:B br_1_2:B bl_0_3:B bl_1_3:B br_0_3:B br_1_3:B bl_0_4:B bl_1_4:B br_0_4:B br_1_4:B bl_0_5:B bl_1_5:B br_0_5:B br_1_5:B bl_0_6:B bl_1_6:B br_0_6:B br_1_6:B bl_0_7:B bl_1_7:B br_0_7:B br_1_7:B wl_0_0:I wl_1_0:I vdd:B gnd:B
* INOUT : bl_0_0 
* INOUT : bl_1_0 
* INOUT : br_0_0 
* INOUT : br_1_0 
* INOUT : bl_0_1 
* INOUT : bl_1_1 
* INOUT : br_0_1 
* INOUT : br_1_1 
* INOUT : bl_0_2 
* INOUT : bl_1_2 
* INOUT : br_0_2 
* INOUT : br_1_2 
* INOUT : bl_0_3 
* INOUT : bl_1_3 
* INOUT : br_0_3 
* INOUT : br_1_3 
* INOUT : bl_0_4 
* INOUT : bl_1_4 
* INOUT : br_0_4 
* INOUT : br_1_4 
* INOUT : bl_0_5 
* INOUT : bl_1_5 
* INOUT : br_0_5 
* INOUT : br_1_5 
* INOUT : bl_0_6 
* INOUT : bl_1_6 
* INOUT : br_0_6 
* INOUT : br_1_6 
* INOUT : bl_0_7 
* INOUT : bl_1_7 
* INOUT : br_0_7 
* INOUT : br_1_7 
* INPUT : wl_0_0 
* INPUT : wl_1_0 
* POWER : vdd 
* GROUND: gnd 
Xbit_r0_c0 bl_0_0 br_0_0 bl_1_0 br_1_0 wl_0_0 wl_1_0 vdd gnd sky130_fd_bd_sram__openram_dp_cell_dummy
Xbit_r0_c1 bl_0_1 br_0_1 bl_1_1 br_1_1 wl_0_0 wl_1_0 vdd gnd sky130_fd_bd_sram__openram_dp_cell_dummy
Xbit_r0_c2 bl_0_2 br_0_2 bl_1_2 br_1_2 wl_0_0 wl_1_0 vdd gnd sky130_fd_bd_sram__openram_dp_cell_dummy
Xbit_r0_c3 bl_0_3 br_0_3 bl_1_3 br_1_3 wl_0_0 wl_1_0 vdd gnd sky130_fd_bd_sram__openram_dp_cell_dummy
Xbit_r0_c4 bl_0_4 br_0_4 bl_1_4 br_1_4 wl_0_0 wl_1_0 vdd gnd sky130_fd_bd_sram__openram_dp_cell_dummy
Xbit_r0_c5 bl_0_5 br_0_5 bl_1_5 br_1_5 wl_0_0 wl_1_0 vdd gnd sky130_fd_bd_sram__openram_dp_cell_dummy
Xbit_r0_c6 bl_0_6 br_0_6 bl_1_6 br_1_6 wl_0_0 wl_1_0 vdd gnd sky130_fd_bd_sram__openram_dp_cell_dummy
Xbit_r0_c7 bl_0_7 br_0_7 bl_1_7 br_1_7 wl_0_0 wl_1_0 vdd gnd sky130_fd_bd_sram__openram_dp_cell_dummy
.ENDS dummy_array

.SUBCKT replica_bitcell_array rbl_bl_0_0 rbl_bl_1_0 rbl_br_0_0 rbl_br_1_0 bl_0_0 bl_1_0 br_0_0 br_1_0 bl_0_1 bl_1_1 br_0_1 br_1_1 bl_0_2 bl_1_2 br_0_2 br_1_2 bl_0_3 bl_1_3 br_0_3 br_1_3 bl_0_4 bl_1_4 br_0_4 br_1_4 bl_0_5 bl_1_5 br_0_5 br_1_5 bl_0_6 bl_1_6 br_0_6 br_1_6 bl_0_7 bl_1_7 br_0_7 br_1_7 rbl_bl_0_1 rbl_bl_1_1 rbl_br_0_1 rbl_br_1_1 rbl_wl_0_0 wl_0_0 wl_1_0 wl_0_1 wl_1_1 wl_0_2 wl_1_2 wl_0_3 wl_1_3 wl_0_4 wl_1_4 wl_0_5 wl_1_5 wl_0_6 wl_1_6 wl_0_7 wl_1_7 wl_0_8 wl_1_8 wl_0_9 wl_1_9 wl_0_10 wl_1_10 wl_0_11 wl_1_11 wl_0_12 wl_1_12 wl_0_13 wl_1_13 wl_0_14 wl_1_14 wl_0_15 wl_1_15 rbl_wl_1_1 vdd gnd