* NGSPICE file created from sky130_sram_0kbytes_1rw1r_8x16_2.ext - technology: sky130A

.subckt sky130_fd_bd_sram__openram_dff D Q gnd clk vdd QN
X0 vdd a_28_102# a_389_712# vdd sky130_fd_pr__pfet_01v8 ad=0p pd=0u as=0p ps=0u w=3u l=0.15u
X1 a_47_611# clk a_197_712# vdd sky130_fd_pr__pfet_01v8 ad=0p pd=0u as=0p ps=0u w=3u l=0.15u
X2 a_239_76# clk vdd vdd sky130_fd_pr__pfet_01v8 ad=0p pd=0u as=0p ps=0u w=3u l=0.15u
X3 a_197_712# D vdd vdd sky130_fd_pr__pfet_01v8 ad=0p pd=0u as=0p ps=0u w=3u l=0.15u
X4 QN clk a_547_102# gnd sky130_fd_pr__nfet_01v8 ad=0p pd=0u as=0p ps=0u w=1u l=0.15u
X5 gnd Q a_739_102# gnd sky130_fd_pr__nfet_01v8 ad=0p pd=0u as=0p ps=0u w=1u l=0.15u
X6 Q QN gnd gnd sky130_fd_pr__nfet_01v8 ad=0p pd=0u as=0p ps=0u w=1u l=0.15u
X7 a_389_712# a_239_76# a_47_611# vdd sky130_fd_pr__pfet_01v8 ad=0p pd=0u as=0p ps=0u w=3u l=0.15u
X8 vdd a_47_611# a_28_102# vdd sky130_fd_pr__pfet_01v8 ad=0p pd=0u as=0p ps=0u w=3u l=0.15u
X9 a_547_712# a_28_102# vdd vdd sky130_fd_pr__pfet_01v8 ad=0p pd=0u as=0p ps=0u w=3u l=0.15u
X10 a_739_712# clk QN vdd sky130_fd_pr__pfet_01v8 ad=0p pd=0u as=0p ps=0u w=3u l=0.15u
X11 gnd a_28_102# a_389_102# gnd sky130_fd_pr__nfet_01v8 ad=0p pd=0u as=0p ps=0u w=1u l=0.15u
X12 a_47_611# a_239_76# a_197_102# gnd sky130_fd_pr__nfet_01v8 ad=0p pd=0u as=0p ps=0u w=1u l=0.15u
X13 a_239_76# clk gnd gnd sky130_fd_pr__nfet_01v8 ad=0p pd=0u as=0p ps=0u w=1u l=0.15u
X14 a_197_102# D gnd gnd sky130_fd_pr__nfet_01v8 ad=0p pd=0u as=0p ps=0u w=1u l=0.15u
X15 a_389_102# clk a_47_611# gnd sky130_fd_pr__nfet_01v8 ad=0p pd=0u as=0p ps=0u w=1u l=0.15u
X16 gnd a_47_611# a_28_102# gnd sky130_fd_pr__nfet_01v8 ad=0p pd=0u as=0p ps=0u w=1u l=0.15u
X17 a_547_102# a_28_102# gnd gnd sky130_fd_pr__nfet_01v8 ad=0p pd=0u as=0p ps=0u w=1u l=0.15u
X18 a_739_102# a_239_76# QN gnd sky130_fd_pr__nfet_01v8 ad=0p pd=0u as=0p ps=0u w=1u l=0.15u
X19 vdd Q a_739_712# vdd sky130_fd_pr__pfet_01v8 ad=0p pd=0u as=0p ps=0u w=3u l=0.15u
X20 QN a_239_76# a_547_712# vdd sky130_fd_pr__pfet_01v8 ad=0p pd=0u as=0p ps=0u w=3u l=0.15u
X21 Q QN vdd vdd sky130_fd_pr__pfet_01v8 ad=0p pd=0u as=0p ps=0u w=3u l=0.15u
.ends

.subckt wmask_dff din_0 din_1 din_2 din_3 dout_0 dout_1 dout_2 dout_3 clk vdd gnd
+
Xsky130_fd_bd_sram__openram_dff_0 din_3 dout_3 gnd clk vdd sky130_fd_bd_sram__openram_dff_0/QN
+ sky130_fd_bd_sram__openram_dff
Xsky130_fd_bd_sram__openram_dff_1 din_2 dout_2 gnd clk vdd sky130_fd_bd_sram__openram_dff_1/QN
+ sky130_fd_bd_sram__openram_dff
Xsky130_fd_bd_sram__openram_dff_2 din_1 dout_1 gnd clk vdd sky130_fd_bd_sram__openram_dff_2/QN
+ sky130_fd_bd_sram__openram_dff
Xsky130_fd_bd_sram__openram_dff_3 din_0 dout_0 gnd clk vdd sky130_fd_bd_sram__openram_dff_3/QN
+ sky130_fd_bd_sram__openram_dff
.ends

.subckt data_dff din_0 din_1 din_2 din_3 din_4 din_5 din_6 din_7 dout_0 dout_1 dout_2
+ dout_3 dout_4 dout_5 dout_6 dout_7 clk vdd gnd
Xsky130_fd_bd_sram__openram_dff_5 din_2 dout_2 gnd clk vdd sky130_fd_bd_sram__openram_dff_5/QN
+ sky130_fd_bd_sram__openram_dff
Xsky130_fd_bd_sram__openram_dff_6 din_1 dout_1 gnd clk vdd sky130_fd_bd_sram__openram_dff_6/QN
+ sky130_fd_bd_sram__openram_dff
Xsky130_fd_bd_sram__openram_dff_7 din_0 dout_0 gnd clk vdd sky130_fd_bd_sram__openram_dff_7/QN
+ sky130_fd_bd_sram__openram_dff
Xsky130_fd_bd_sram__openram_dff_0 din_7 dout_7 gnd clk vdd sky130_fd_bd_sram__openram_dff_0/QN
+ sky130_fd_bd_sram__openram_dff
Xsky130_fd_bd_sram__openram_dff_1 din_6 dout_6 gnd clk vdd sky130_fd_bd_sram__openram_dff_1/QN
+ sky130_fd_bd_sram__openram_dff
Xsky130_fd_bd_sram__openram_dff_2 din_5 dout_5 gnd clk vdd sky130_fd_bd_sram__openram_dff_2/QN
+ sky130_fd_bd_sram__openram_dff
Xsky130_fd_bd_sram__openram_dff_3 din_4 dout_4 gnd clk vdd sky130_fd_bd_sram__openram_dff_3/QN
+ sky130_fd_bd_sram__openram_dff
Xsky130_fd_bd_sram__openram_dff_4 din_3 dout_3 gnd clk vdd sky130_fd_bd_sram__openram_dff_4/QN
+ sky130_fd_bd_sram__openram_dff
.ends

.subckt nmos_m1_w0_740_sli_dactive G S a_90_0# w_n26_n26#
X0 a_90_0# G S w_n26_n26# sky130_fd_pr__nfet_01v8 ad=0p pd=0u as=0p ps=0u w=0.74u l=0.15u
.ends

.subckt nmos_m1_w0_740_sactive_dli G D w_n26_n26# a_0_0#
X0 D G a_0_0# w_n26_n26# sky130_fd_pr__nfet_01v8 ad=0p pd=0u as=0p ps=0u w=0.74u l=0.15u
.ends

.subckt pmos_m1_w1_120_sli_dli G S D gnd w_n59_28#
X0 D G S w_n59_28# sky130_fd_pr__pfet_01v8 ad=0p pd=0u as=0p ps=0u w=1.12u l=0.15u
.ends

.subckt pnand3 A B C Z vdd gnd w_n36_679# contact_16_2/gnd
Xnmos_m1_w0_740_sli_dactive_0 A gnd a_154_51# contact_16_2/gnd nmos_m1_w0_740_sli_dactive
Xnmos_m1_w0_740_sactive_dli_0 C Z contact_16_2/gnd a_244_51# nmos_m1_w0_740_sactive_dli
Xpmos_m1_w1_120_sli_dli_0 C vdd Z contact_16_2/gnd w_n36_679# pmos_m1_w1_120_sli_dli
Xpmos_m1_w1_120_sli_dli_1 B Z vdd contact_16_2/gnd w_n36_679# pmos_m1_w1_120_sli_dli
Xpmos_m1_w1_120_sli_dli_2 A vdd Z contact_16_2/gnd w_n36_679# pmos_m1_w1_120_sli_dli
X0 a_244_51# B a_154_51# contact_16_2/gnd sky130_fd_pr__nfet_01v8 ad=0p pd=0u as=0p ps=0u w=0.74u l=0.15u
.ends

.subckt pmos_m5_w2_000_sli_dli_da_p G S D S_uq0 S_uq1 gnd w_n59_116#
X0 D G S_uq1 w_n59_116# sky130_fd_pr__pfet_01v8 ad=0p pd=0u as=0p ps=0u w=2u l=0.15u
X1 D G S w_n59_116# sky130_fd_pr__pfet_01v8 ad=0p pd=0u as=0p ps=0u w=2u l=0.15u
X2 S G D w_n59_116# sky130_fd_pr__pfet_01v8 ad=0p pd=0u as=0p ps=0u w=2u l=0.15u
X3 D G S_uq0 w_n59_116# sky130_fd_pr__pfet_01v8 ad=0p pd=0u as=0p ps=0u w=2u l=0.15u
X4 S_uq0 G D w_n59_116# sky130_fd_pr__pfet_01v8 ad=0p pd=0u as=0p ps=0u w=2u l=0.15u
.ends

.subckt nmos_m5_w1_680_sli_dli_da_p G S D S_uq0 S_uq1 w_n26_n26#
X0 S_uq0 G D w_n26_n26# sky130_fd_pr__nfet_01v8 ad=0p pd=0u as=0p ps=0u w=1.68u l=0.15u
X1 D G S_uq1 w_n26_n26# sky130_fd_pr__nfet_01v8 ad=0p pd=0u as=0p ps=0u w=1.68u l=0.15u
X2 D G S w_n26_n26# sky130_fd_pr__nfet_01v8 ad=0p pd=0u as=0p ps=0u w=1.68u l=0.15u
X3 S G D w_n26_n26# sky130_fd_pr__nfet_01v8 ad=0p pd=0u as=0p ps=0u w=1.68u l=0.15u
X4 D G S_uq0 w_n26_n26# sky130_fd_pr__nfet_01v8 ad=0p pd=0u as=0p ps=0u w=1.68u l=0.15u
.ends

.subckt pinv_6 A Z vdd gnd
Xpmos_m5_w2_000_sli_dli_da_p_0 A vdd Z vdd vdd gnd vdd pmos_m5_w2_000_sli_dli_da_p
Xnmos_m5_w1_680_sli_dli_da_p_0 A gnd Z gnd gnd gnd nmos_m5_w1_680_sli_dli_da_p
.ends

.subckt pdriver_4 A Z vdd gnd
Xpinv_6_0 A Z vdd gnd pinv_6
.ends

.subckt pand3_0 A B C Z vdd gnd
Xpnand3_0 A B C pnand3_0/Z vdd gnd vdd gnd pnand3
Xpdriver_4_0 pnand3_0/Z Z vdd gnd pdriver_4
.ends

.subckt nmos_m3_w1_680_sli_dli_da_p G S D S_uq0 w_n26_n26#
X0 D G S w_n26_n26# sky130_fd_pr__nfet_01v8 ad=0p pd=0u as=0p ps=0u w=1.68u l=0.15u
X1 D G S_uq0 w_n26_n26# sky130_fd_pr__nfet_01v8 ad=0p pd=0u as=0p ps=0u w=1.68u l=0.15u
X2 S_uq0 G D w_n26_n26# sky130_fd_pr__nfet_01v8 ad=0p pd=0u as=0p ps=0u w=1.68u l=0.15u
.ends

.subckt pmos_m3_w1_680_sli_dli_da_p G S D S_uq0 gnd w_n59_84#
X0 D G S w_n59_84# sky130_fd_pr__pfet_01v8 ad=0p pd=0u as=0p ps=0u w=1.68u l=0.15u
X1 D G S_uq0 w_n59_84# sky130_fd_pr__pfet_01v8 ad=0p pd=0u as=0p ps=0u w=1.68u l=0.15u
X2 S_uq0 G D w_n59_84# sky130_fd_pr__pfet_01v8 ad=0p pd=0u as=0p ps=0u w=1.68u l=0.15u
.ends

.subckt pinv_1 A Z vdd gnd
Xnmos_m3_w1_680_sli_dli_da_p_0 A gnd Z gnd gnd nmos_m3_w1_680_sli_dli_da_p
Xpmos_m3_w1_680_sli_dli_da_p_0 A vdd Z vdd gnd vdd pmos_m3_w1_680_sli_dli_da_p
.ends

.subckt nmos_m2_w0_740_sli_dli_da_p G S D S_uq0 w_n26_n26#
X0 D G S w_n26_n26# sky130_fd_pr__nfet_01v8 ad=0p pd=0u as=0p ps=0u w=0.74u l=0.15u
X1 S_uq0 G D w_n26_n26# sky130_fd_pr__nfet_01v8 ad=0p pd=0u as=0p ps=0u w=0.74u l=0.15u
.ends

.subckt pmos_m2_w1_260_sli_dli_da_p G S D S_uq0 gnd w_n59_42#
X0 D G S w_n59_42# sky130_fd_pr__pfet_01v8 ad=0p pd=0u as=0p ps=0u w=1.26u l=0.15u
X1 S_uq0 G D w_n59_42# sky130_fd_pr__pfet_01v8 ad=0p pd=0u as=0p ps=0u w=1.26u l=0.15u
.ends

.subckt pinv_0 A Z vdd gnd
Xnmos_m2_w0_740_sli_dli_da_p_0 A gnd Z gnd gnd nmos_m2_w0_740_sli_dli_da_p
Xpmos_m2_w1_260_sli_dli_da_p_0 A vdd Z vdd gnd vdd pmos_m2_w1_260_sli_dli_da_p
.ends

.subckt dff_buf_0 D Q Qb clk vdd gnd
Xpinv_1_0 Qb Q vdd gnd pinv_1
Xsky130_fd_bd_sram__openram_dff_0 D pinv_0_0/A gnd clk vdd sky130_fd_bd_sram__openram_dff_0/QN
+ sky130_fd_bd_sram__openram_dff
Xpinv_0_0 pinv_0_0/A Qb vdd gnd pinv_0
.ends

.subckt dff_buf_array din_0 din_1 dout_0 dout_bar_0 dout_1 dout_bar_1 clk vdd gnd
+
Xdff_buf_0_1 din_0 dout_0 dout_bar_0 clk vdd gnd dff_buf_0
Xdff_buf_0_0 din_1 dout_1 dout_bar_1 clk vdd gnd dff_buf_0
.ends

.subckt nmos_m2_w1_260_sli_dli_da_p G S D S_uq0 w_n26_n26#
X0 D G S w_n26_n26# sky130_fd_pr__nfet_01v8 ad=0p pd=0u as=0p ps=0u w=1.26u l=0.15u
X1 S_uq0 G D w_n26_n26# sky130_fd_pr__nfet_01v8 ad=0p pd=0u as=0p ps=0u w=1.26u l=0.15u
.ends

.subckt pmos_m2_w2_000_sli_dli_da_p G S D S_uq0 gnd w_n59_116#
X0 D G S w_n59_116# sky130_fd_pr__pfet_01v8 ad=0p pd=0u as=0p ps=0u w=2u l=0.15u
X1 S_uq0 G D w_n59_116# sky130_fd_pr__pfet_01v8 ad=0p pd=0u as=0p ps=0u w=2u l=0.15u
.ends

.subckt pinv_5 A Z vdd gnd
Xnmos_m2_w1_260_sli_dli_da_p_0 A gnd Z gnd gnd nmos_m2_w1_260_sli_dli_da_p
Xpmos_m2_w2_000_sli_dli_da_p_0 A vdd Z vdd gnd vdd pmos_m2_w2_000_sli_dli_da_p
.ends

.subckt nmos_m1_w0_360_sli_dli_da_p G S D w_n26_n26#
X0 D G S w_n26_n26# sky130_fd_pr__nfet_01v8 ad=0p pd=0u as=0p ps=0u w=0.36u l=0.15u
.ends

.subckt pmos_m1_w1_120_sli_dli_da_p G S D gnd w_n59_28#
X0 D G S w_n59_28# sky130_fd_pr__pfet_01v8 ad=0p pd=0u as=0p ps=0u w=1.12u l=0.15u
.ends

.subckt pinv_4 A Z vdd gnd
Xnmos_m1_w0_360_sli_dli_da_p_0 A gnd Z gnd nmos_m1_w0_360_sli_dli_da_p
Xpmos_m1_w1_120_sli_dli_da_p_0 A vdd Z gnd vdd pmos_m1_w1_120_sli_dli_da_p
.ends

.subckt pdriver_5 A Z vdd gnd
Xpinv_5_0 pinv_5_0/A Z vdd gnd pinv_5
Xpinv_4_0 A pinv_5_0/A vdd gnd pinv_4
.ends

.subckt pmos_m9_w2_000_sli_dli_da_p G S D S_uq0 S_uq1 S_uq2 S_uq3 gnd w_n59_116#
X0 D G S_uq3 w_n59_116# sky130_fd_pr__pfet_01v8 ad=0p pd=0u as=0p ps=0u w=2u l=0.15u
X1 D G S_uq2 w_n59_116# sky130_fd_pr__pfet_01v8 ad=0p pd=0u as=0p ps=0u w=2u l=0.15u
X2 D G S_uq0 w_n59_116# sky130_fd_pr__pfet_01v8 ad=0p pd=0u as=0p ps=0u w=2u l=0.15u
X3 S_uq2 G D w_n59_116# sky130_fd_pr__pfet_01v8 ad=0p pd=0u as=0p ps=0u w=2u l=0.15u
X4 S_uq0 G D w_n59_116# sky130_fd_pr__pfet_01v8 ad=0p pd=0u as=0p ps=0u w=2u l=0.15u
X5 D G S_uq1 w_n59_116# sky130_fd_pr__pfet_01v8 ad=0p pd=0u as=0p ps=0u w=2u l=0.15u
X6 D G S w_n59_116# sky130_fd_pr__pfet_01v8 ad=0p pd=0u as=0p ps=0u w=2u l=0.15u
X7 S_uq1 G D w_n59_116# sky130_fd_pr__pfet_01v8 ad=0p pd=0u as=0p ps=0u w=2u l=0.15u
X8 S G D w_n59_116# sky130_fd_pr__pfet_01v8 ad=0p pd=0u as=0p ps=0u w=2u l=0.15u
.ends

.subckt nmos_m9_w2_000_sli_dli_da_p G S D S_uq0 S_uq1 S_uq2 S_uq3 w_n26_n26#
X0 S_uq1 G D w_n26_n26# sky130_fd_pr__nfet_01v8 ad=0p pd=0u as=0p ps=0u w=2u l=0.15u
X1 S G D w_n26_n26# sky130_fd_pr__nfet_01v8 ad=0p pd=0u as=0p ps=0u w=2u l=0.15u
X2 D G S_uq3 w_n26_n26# sky130_fd_pr__nfet_01v8 ad=0p pd=0u as=0p ps=0u w=2u l=0.15u
X3 D G S_uq2 w_n26_n26# sky130_fd_pr__nfet_01v8 ad=0p pd=0u as=0p ps=0u w=2u l=0.15u
X4 D G S_uq0 w_n26_n26# sky130_fd_pr__nfet_01v8 ad=0p pd=0u as=0p ps=0u w=2u l=0.15u
X5 S_uq2 G D w_n26_n26# sky130_fd_pr__nfet_01v8 ad=0p pd=0u as=0p ps=0u w=2u l=0.15u
X6 S_uq0 G D w_n26_n26# sky130_fd_pr__nfet_01v8 ad=0p pd=0u as=0p ps=0u w=2u l=0.15u
X7 D G S_uq1 w_n26_n26# sky130_fd_pr__nfet_01v8 ad=0p pd=0u as=0p ps=0u w=2u l=0.15u
X8 D G S w_n26_n26# sky130_fd_pr__nfet_01v8 ad=0p pd=0u as=0p ps=0u w=2u l=0.15u
.ends

.subckt pinv_9 A Z vdd gnd
Xpmos_m9_w2_000_sli_dli_da_p_0 A vdd Z vdd vdd vdd vdd gnd vdd pmos_m9_w2_000_sli_dli_da_p
Xnmos_m9_w2_000_sli_dli_da_p_0 A gnd Z gnd gnd gnd gnd gnd nmos_m9_w2_000_sli_dli_da_p
.ends

.subckt pdriver_3 A Z vdd gnd
Xpinv_9_0 A Z vdd gnd pinv_9
.ends

.subckt pand3 A B C Z vdd gnd
Xpnand3_0 A B C pnand3_0/Z vdd gnd vdd gnd pnand3
Xpdriver_3_0 pnand3_0/Z Z vdd gnd pdriver_3
.ends

.subckt pnand2_0 A B Z vdd gnd w_n36_679#
Xnmos_m1_w0_740_sli_dactive_0 A gnd nmos_m1_w0_740_sactive_dli_0/a_0_0# gnd nmos_m1_w0_740_sli_dactive
Xnmos_m1_w0_740_sactive_dli_0 B Z gnd nmos_m1_w0_740_sactive_dli_0/a_0_0# nmos_m1_w0_740_sactive_dli
Xpmos_m1_w1_120_sli_dli_0 B Z vdd gnd w_n36_679# pmos_m1_w1_120_sli_dli
Xpmos_m1_w1_120_sli_dli_1 A vdd Z gnd w_n36_679# pmos_m1_w1_120_sli_dli
.ends

.subckt nmos_m7_w1_680_sli_dli_da_p G S D S_uq0 S_uq1 S_uq2 w_n26_n26#
X0 S G D w_n26_n26# sky130_fd_pr__nfet_01v8 ad=0p pd=0u as=0p ps=0u w=1.68u l=0.15u
X1 S_uq0 G D w_n26_n26# sky130_fd_pr__nfet_01v8 ad=0p pd=0u as=0p ps=0u w=1.68u l=0.15u
X2 D G S_uq2 w_n26_n26# sky130_fd_pr__nfet_01v8 ad=0p pd=0u as=0p ps=0u w=1.68u l=0.15u
X3 D G S_uq1 w_n26_n26# sky130_fd_pr__nfet_01v8 ad=0p pd=0u as=0p ps=0u w=1.68u l=0.15u
X4 S_uq1 G D w_n26_n26# sky130_fd_pr__nfet_01v8 ad=0p pd=0u as=0p ps=0u w=1.68u l=0.15u
X5 D G S w_n26_n26# sky130_fd_pr__nfet_01v8 ad=0p pd=0u as=0p ps=0u w=1.68u l=0.15u
X6 D G S_uq0 w_n26_n26# sky130_fd_pr__nfet_01v8 ad=0p pd=0u as=0p ps=0u w=1.68u l=0.15u
.ends

.subckt pmos_m7_w2_000_sli_dli_da_p G S D S_uq0 S_uq1 S_uq2 gnd w_n59_116#
X0 D G S_uq2 w_n59_116# sky130_fd_pr__pfet_01v8 ad=0p pd=0u as=0p ps=0u w=2u l=0.15u
X1 D G S_uq1 w_n59_116# sky130_fd_pr__pfet_01v8 ad=0p pd=0u as=0p ps=0u w=2u l=0.15u
X2 S_uq1 G D w_n59_116# sky130_fd_pr__pfet_01v8 ad=0p pd=0u as=0p ps=0u w=2u l=0.15u
X3 D G S w_n59_116# sky130_fd_pr__pfet_01v8 ad=0p pd=0u as=0p ps=0u w=2u l=0.15u
X4 D G S_uq0 w_n59_116# sky130_fd_pr__pfet_01v8 ad=0p pd=0u as=0p ps=0u w=2u l=0.15u
X5 S G D w_n59_116# sky130_fd_pr__pfet_01v8 ad=0p pd=0u as=0p ps=0u w=2u l=0.15u
X6 S_uq0 G D w_n59_116# sky130_fd_pr__pfet_01v8 ad=0p pd=0u as=0p ps=0u w=2u l=0.15u
.ends

.subckt pinv_2 A Z vdd gnd
Xnmos_m7_w1_680_sli_dli_da_p_0 A gnd Z gnd gnd gnd gnd nmos_m7_w1_680_sli_dli_da_p
Xpmos_m7_w2_000_sli_dli_da_p_0 A vdd Z vdd vdd vdd gnd vdd pmos_m7_w2_000_sli_dli_da_p
.ends

.subckt pdriver_0 A Z vdd gnd
Xpinv_2_0 A Z vdd gnd pinv_2
.ends

.subckt pand2_0 A B Z vdd gnd
Xpnand2_0_0 A B pnand2_0_0/Z vdd gnd vdd pnand2_0
Xpdriver_0_0 pnand2_0_0/Z Z vdd gnd pdriver_0
.ends

.subckt nmos_m14_w2_000_sli_dli_da_p G S D S_uq0 S_uq1 S_uq2 S_uq3 S_uq4 S_uq5 S_uq6
+ w_n26_n26#
X0 S_uq4 G D w_n26_n26# sky130_fd_pr__nfet_01v8 ad=0p pd=0u as=0p ps=0u w=2u l=0.15u
X1 S_uq3 G D w_n26_n26# sky130_fd_pr__nfet_01v8 ad=0p pd=0u as=0p ps=0u w=2u l=0.15u
X2 D G S_uq6 w_n26_n26# sky130_fd_pr__nfet_01v8 ad=0p pd=0u as=0p ps=0u w=2u l=0.15u
X3 S G D w_n26_n26# sky130_fd_pr__nfet_01v8 ad=0p pd=0u as=0p ps=0u w=2u l=0.15u
X4 D G S_uq5 w_n26_n26# sky130_fd_pr__nfet_01v8 ad=0p pd=0u as=0p ps=0u w=2u l=0.15u
X5 D G S_uq2 w_n26_n26# sky130_fd_pr__nfet_01v8 ad=0p pd=0u as=0p ps=0u w=2u l=0.15u
X6 S_uq5 G D w_n26_n26# sky130_fd_pr__nfet_01v8 ad=0p pd=0u as=0p ps=0u w=2u l=0.15u
X7 D G S_uq1 w_n26_n26# sky130_fd_pr__nfet_01v8 ad=0p pd=0u as=0p ps=0u w=2u l=0.15u
X8 S_uq2 G D w_n26_n26# sky130_fd_pr__nfet_01v8 ad=0p pd=0u as=0p ps=0u w=2u l=0.15u
X9 S_uq1 G D w_n26_n26# sky130_fd_pr__nfet_01v8 ad=0p pd=0u as=0p ps=0u w=2u l=0.15u
X10 S_uq0 G D w_n26_n26# sky130_fd_pr__nfet_01v8 ad=0p pd=0u as=0p ps=0u w=2u l=0.15u
X11 D G S_uq4 w_n26_n26# sky130_fd_pr__nfet_01v8 ad=0p pd=0u as=0p ps=0u w=2u l=0.15u
X12 D G S_uq3 w_n26_n26# sky130_fd_pr__nfet_01v8 ad=0p pd=0u as=0p ps=0u w=2u l=0.15u
X13 D G S w_n26_n26# sky130_fd_pr__nfet_01v8 ad=0p pd=0u as=0p ps=0u w=2u l=0.15u
.ends

.subckt pmos_m14_w2_000_sli_dli_da_p G S D S_uq0 S_uq1 S_uq2 S_uq3 S_uq4 S_uq5 S_uq6
+ gnd w_n59_116#
X0 D G S_uq6 w_n59_116# sky130_fd_pr__pfet_01v8 ad=0p pd=0u as=0p ps=0u w=2u l=0.15u
X1 S G D w_n59_116# sky130_fd_pr__pfet_01v8 ad=0p pd=0u as=0p ps=0u w=2u l=0.15u
X2 D G S_uq5 w_n59_116# sky130_fd_pr__pfet_01v8 ad=0p pd=0u as=0p ps=0u w=2u l=0.15u
X3 D G S_uq2 w_n59_116# sky130_fd_pr__pfet_01v8 ad=0p pd=0u as=0p ps=0u w=2u l=0.15u
X4 S_uq5 G D w_n59_116# sky130_fd_pr__pfet_01v8 ad=0p pd=0u as=0p ps=0u w=2u l=0.15u
X5 D G S_uq1 w_n59_116# sky130_fd_pr__pfet_01v8 ad=0p pd=0u as=0p ps=0u w=2u l=0.15u
X6 S_uq2 G D w_n59_116# sky130_fd_pr__pfet_01v8 ad=0p pd=0u as=0p ps=0u w=2u l=0.15u
X7 S_uq0 G D w_n59_116# sky130_fd_pr__pfet_01v8 ad=0p pd=0u as=0p ps=0u w=2u l=0.15u
X8 S_uq1 G D w_n59_116# sky130_fd_pr__pfet_01v8 ad=0p pd=0u as=0p ps=0u w=2u l=0.15u
X9 D G S_uq4 w_n59_116# sky130_fd_pr__pfet_01v8 ad=0p pd=0u as=0p ps=0u w=2u l=0.15u
X10 D G S_uq3 w_n59_116# sky130_fd_pr__pfet_01v8 ad=0p pd=0u as=0p ps=0u w=2u l=0.15u
X11 D G S w_n59_116# sky130_fd_pr__pfet_01v8 ad=0p pd=0u as=0p ps=0u w=2u l=0.15u
X12 S_uq4 G D w_n59_116# sky130_fd_pr__pfet_01v8 ad=0p pd=0u as=0p ps=0u w=2u l=0.15u
X13 S_uq3 G D w_n59_116# sky130_fd_pr__pfet_01v8 ad=0p pd=0u as=0p ps=0u w=2u l=0.15u
.ends

.subckt pinv_7 A Z vdd gnd
Xnmos_m14_w2_000_sli_dli_da_p_0 A gnd Z gnd gnd gnd gnd gnd gnd gnd gnd nmos_m14_w2_000_sli_dli_da_p
Xpmos_m14_w2_000_sli_dli_da_p_0 A vdd Z vdd vdd vdd vdd vdd vdd vdd gnd vdd pmos_m14_w2_000_sli_dli_da_p
.ends

.subckt pdriver_1 A Z vdd gnd
Xpinv_7_0 pinv_7_0/A Z vdd gnd pinv_7
Xpinv_5_0 pinv_5_0/A pinv_6_0/A vdd gnd pinv_5
Xpinv_6_0 pinv_6_0/A pinv_7_0/A vdd gnd pinv_6
Xpinv_4_0 A pinv_5_0/A vdd gnd pinv_4
.ends

.subckt pinv_11 A Z vdd gnd
Xnmos_m1_w0_360_sli_dli_da_p_0 A gnd Z gnd nmos_m1_w0_360_sli_dli_da_p
Xpmos_m1_w1_120_sli_dli_da_p_0 A vdd Z gnd vdd pmos_m1_w1_120_sli_dli_da_p
.ends

.subckt delay_chain in out vdd gnd vdd_uq2 vdd_uq4 vdd_uq6 vdd_uq8
Xpinv_11_0 out pinv_11_0/Z vdd_uq8 gnd pinv_11
Xpinv_11_1 out pinv_11_1/Z vdd_uq8 gnd pinv_11
Xpinv_11_2 out pinv_11_2/Z vdd_uq8 gnd pinv_11
Xpinv_11_3 out pinv_11_3/Z vdd_uq8 gnd pinv_11
Xpinv_11_4 pinv_11_9/Z out vdd_uq8 gnd pinv_11
Xpinv_11_5 pinv_11_9/Z pinv_11_5/Z vdd_uq6 gnd pinv_11
Xpinv_11_6 pinv_11_9/Z pinv_11_6/Z vdd_uq6 gnd pinv_11
Xpinv_11_7 pinv_11_9/Z pinv_11_7/Z vdd_uq6 gnd pinv_11
Xpinv_11_8 pinv_11_9/Z pinv_11_8/Z vdd_uq6 gnd pinv_11
Xpinv_11_9 pinv_11_9/A pinv_11_9/Z vdd_uq6 gnd pinv_11
Xpinv_11_40 pinv_11_44/Z pinv_11_40/Z vdd gnd pinv_11
Xpinv_11_41 pinv_11_44/Z pinv_11_41/Z vdd gnd pinv_11
Xpinv_11_30 pinv_11_34/Z pinv_11_30/Z vdd_uq2 gnd pinv_11
Xpinv_11_20 pinv_11_24/Z pinv_11_20/Z vdd_uq4 gnd pinv_11
Xpinv_11_42 pinv_11_44/Z pinv_11_42/Z vdd gnd pinv_11
Xpinv_11_31 pinv_11_34/Z pinv_11_31/Z vdd_uq2 gnd pinv_11
Xpinv_11_10 pinv_11_9/A pinv_11_10/Z vdd_uq6 gnd pinv_11
Xpinv_11_21 pinv_11_24/Z pinv_11_21/Z vdd_uq4 gnd pinv_11
Xpinv_11_43 pinv_11_44/Z pinv_11_43/Z vdd gnd pinv_11
Xpinv_11_32 pinv_11_34/Z pinv_11_32/Z vdd_uq2 gnd pinv_11
Xpinv_11_11 pinv_11_9/A pinv_11_11/Z vdd_uq6 gnd pinv_11
Xpinv_11_22 pinv_11_24/Z pinv_11_22/Z vdd_uq4 gnd pinv_11
Xpinv_11_44 in pinv_11_44/Z vdd gnd pinv_11
Xpinv_11_33 pinv_11_34/Z pinv_11_33/Z vdd_uq2 gnd pinv_11
Xpinv_11_12 pinv_11_9/A pinv_11_12/Z vdd_uq6 gnd pinv_11
Xpinv_11_23 pinv_11_24/Z pinv_11_23/Z vdd_uq4 gnd pinv_11
Xpinv_11_34 pinv_11_39/Z pinv_11_34/Z vdd_uq2 gnd pinv_11
Xpinv_11_13 pinv_11_9/A pinv_11_13/Z vdd_uq6 gnd pinv_11
Xpinv_11_24 pinv_11_29/Z pinv_11_24/Z vdd_uq4 gnd pinv_11
Xpinv_11_35 pinv_11_39/Z pinv_11_35/Z vdd gnd pinv_11
Xpinv_11_14 pinv_11_19/Z pinv_11_9/A vdd_uq6 gnd pinv_11
Xpinv_11_25 pinv_11_29/Z pinv_11_25/Z vdd_uq2 gnd pinv_11
Xpinv_11_36 pinv_11_39/Z pinv_11_36/Z vdd gnd pinv_11
Xpinv_11_15 pinv_11_19/Z pinv_11_15/Z vdd_uq4 gnd pinv_11
Xpinv_11_26 pinv_11_29/Z pinv_11_26/Z vdd_uq2 gnd pinv_11
Xpinv_11_37 pinv_11_39/Z pinv_11_37/Z vdd gnd pinv_11
Xpinv_11_16 pinv_11_19/Z pinv_11_16/Z vdd_uq4 gnd pinv_11
Xpinv_11_27 pinv_11_29/Z pinv_11_27/Z vdd_uq2 gnd pinv_11
Xpinv_11_38 pinv_11_39/Z pinv_11_38/Z vdd gnd pinv_11
Xpinv_11_17 pinv_11_19/Z pinv_11_17/Z vdd_uq4 gnd pinv_11
Xpinv_11_39 pinv_11_44/Z pinv_11_39/Z vdd gnd pinv_11
Xpinv_11_28 pinv_11_29/Z pinv_11_28/Z vdd_uq2 gnd pinv_11
Xpinv_11_18 pinv_11_19/Z pinv_11_18/Z vdd_uq4 gnd pinv_11
Xpinv_11_29 pinv_11_34/Z pinv_11_29/Z vdd_uq2 gnd pinv_11
Xpinv_11_19 pinv_11_24/Z pinv_11_19/Z vdd_uq4 gnd pinv_11
.ends

.subckt pinv_10 A Z vdd gnd
Xnmos_m1_w0_360_sli_dli_da_p_0 A gnd Z gnd nmos_m1_w0_360_sli_dli_da_p
Xpmos_m1_w1_120_sli_dli_da_p_0 A vdd Z gnd vdd pmos_m1_w1_120_sli_dli_da_p
.ends

.subckt nmos_m3_w2_000_sli_dli_da_p G S D S_uq0 w_n26_n26#
X0 D G S w_n26_n26# sky130_fd_pr__nfet_01v8 ad=0p pd=0u as=0p ps=0u w=2u l=0.15u
X1 D G S_uq0 w_n26_n26# sky130_fd_pr__nfet_01v8 ad=0p pd=0u as=0p ps=0u w=2u l=0.15u
X2 S_uq0 G D w_n26_n26# sky130_fd_pr__nfet_01v8 ad=0p pd=0u as=0p ps=0u w=2u l=0.15u
.ends

.subckt pmos_m3_w2_000_sli_dli_da_p G S D S_uq0 gnd w_n59_116#
X0 D G S w_n59_116# sky130_fd_pr__pfet_01v8 ad=0p pd=0u as=0p ps=0u w=2u l=0.15u
X1 D G S_uq0 w_n59_116# sky130_fd_pr__pfet_01v8 ad=0p pd=0u as=0p ps=0u w=2u l=0.15u
X2 S_uq0 G D w_n59_116# sky130_fd_pr__pfet_01v8 ad=0p pd=0u as=0p ps=0u w=2u l=0.15u
.ends

.subckt pinv_8 A Z vdd gnd
Xnmos_m3_w2_000_sli_dli_da_p_0 A gnd Z gnd gnd nmos_m3_w2_000_sli_dli_da_p
Xpmos_m3_w2_000_sli_dli_da_p_0 A vdd Z vdd gnd vdd pmos_m3_w2_000_sli_dli_da_p
.ends

.subckt pdriver_2 A Z vdd gnd
Xpinv_8_0 pinv_8_0/A Z vdd gnd pinv_8
Xpinv_4_0 A pinv_8_0/A vdd gnd pinv_4
.ends

.subckt pnand2_1 A B Z vdd gnd
Xnmos_m1_w0_740_sli_dactive_0 A gnd nmos_m1_w0_740_sactive_dli_0/a_0_0# gnd nmos_m1_w0_740_sli_dactive
Xnmos_m1_w0_740_sactive_dli_0 B Z gnd nmos_m1_w0_740_sactive_dli_0/a_0_0# nmos_m1_w0_740_sactive_dli
Xpmos_m1_w1_120_sli_dli_0 B Z vdd gnd vdd pmos_m1_w1_120_sli_dli
Xpmos_m1_w1_120_sli_dli_1 A vdd Z gnd vdd pmos_m1_w1_120_sli_dli
.ends

.subckt control_logic_rw csb web clk rbl_bl s_en w_en p_en_bar wl_en clk_buf vdd gnd
+ vdd_uq0 vdd_uq3 vdd_uq5 vdd_uq7 vdd_uq9 vdd_uq10 vdd_uq11 vdd_uq12 vdd_uq13
Xpand3_0_0 pinv_10_0/A pand3_0/C pand3_0_0/C s_en vdd_uq11 gnd pand3_0
Xdff_buf_array_0 csb web dff_buf_array_0/dout_0 pand2_0_1/B pand3_0_0/C pand3_0/A
+ clk_buf vdd_uq0 gnd dff_buf_array
Xpdriver_5_0 pnand2_1_0/Z p_en_bar vdd_uq12 gnd pdriver_5
Xpand3_0 pand3_0/A pand3_0/B pand3_0/C w_en vdd_uq12 gnd pand3
Xpand2_0_0 clk_buf pand2_0_1/B pand2_0_0/Z vdd_uq11 gnd pand2_0
Xpdriver_1_0 clk clk_buf vdd_uq10 gnd pdriver_1
Xpand2_0_1 pinv_10_1/Z pand2_0_1/B pand3_0/C vdd_uq10 gnd pand2_0
Xdelay_chain_0 rbl_bl pinv_10_0/A vdd_uq9 gnd vdd_uq7 vdd_uq5 vdd_uq3 vdd delay_chain
Xpinv_10_0 pinv_10_0/A pand3_0/B vdd_uq13 gnd pinv_10
Xpdriver_2_0 pand3_0/C wl_en vdd_uq13 gnd pdriver_2
Xpnand2_1_0 pand2_0_0/Z pinv_10_0/A pnand2_1_0/Z vdd_uq12 gnd pnand2_1
Xpinv_10_1 clk_buf pinv_10_1/Z vdd_uq10 gnd pinv_10
.ends

.subckt nmos_m13_w2_000_sli_dli_da_p G S D S_uq0 S_uq1 S_uq2 S_uq3 S_uq4 S_uq5 w_n26_n26#
X0 S_uq3 G D w_n26_n26# sky130_fd_pr__nfet_01v8 ad=0p pd=0u as=0p ps=0u w=2u l=0.15u
X1 S_uq2 G D w_n26_n26# sky130_fd_pr__nfet_01v8 ad=0p pd=0u as=0p ps=0u w=2u l=0.15u
X2 D G S_uq5 w_n26_n26# sky130_fd_pr__nfet_01v8 ad=0p pd=0u as=0p ps=0u w=2u l=0.15u
X3 S_uq0 G D w_n26_n26# sky130_fd_pr__nfet_01v8 ad=0p pd=0u as=0p ps=0u w=2u l=0.15u
X4 D G S_uq4 w_n26_n26# sky130_fd_pr__nfet_01v8 ad=0p pd=0u as=0p ps=0u w=2u l=0.15u
X5 D G S_uq1 w_n26_n26# sky130_fd_pr__nfet_01v8 ad=0p pd=0u as=0p ps=0u w=2u l=0.15u
X6 S_uq4 G D w_n26_n26# sky130_fd_pr__nfet_01v8 ad=0p pd=0u as=0p ps=0u w=2u l=0.15u
X7 D G S w_n26_n26# sky130_fd_pr__nfet_01v8 ad=0p pd=0u as=0p ps=0u w=2u l=0.15u
X8 S_uq1 G D w_n26_n26# sky130_fd_pr__nfet_01v8 ad=0p pd=0u as=0p ps=0u w=2u l=0.15u
X9 S G D w_n26_n26# sky130_fd_pr__nfet_01v8 ad=0p pd=0u as=0p ps=0u w=2u l=0.15u
X10 D G S_uq3 w_n26_n26# sky130_fd_pr__nfet_01v8 ad=0p pd=0u as=0p ps=0u w=2u l=0.15u
X11 D G S_uq2 w_n26_n26# sky130_fd_pr__nfet_01v8 ad=0p pd=0u as=0p ps=0u w=2u l=0.15u
X12 D G S_uq0 w_n26_n26# sky130_fd_pr__nfet_01v8 ad=0p pd=0u as=0p ps=0u w=2u l=0.15u
.ends

.subckt pmos_m13_w2_000_sli_dli_da_p G S D S_uq0 S_uq1 S_uq2 S_uq3 S_uq4 S_uq5 gnd
+ w_n59_116#
X0 D G S_uq5 w_n59_116# sky130_fd_pr__pfet_01v8 ad=0p pd=0u as=0p ps=0u w=2u l=0.15u
X1 S_uq0 G D w_n59_116# sky130_fd_pr__pfet_01v8 ad=0p pd=0u as=0p ps=0u w=2u l=0.15u
X2 D G S_uq4 w_n59_116# sky130_fd_pr__pfet_01v8 ad=0p pd=0u as=0p ps=0u w=2u l=0.15u
X3 D G S_uq1 w_n59_116# sky130_fd_pr__pfet_01v8 ad=0p pd=0u as=0p ps=0u w=2u l=0.15u
X4 S_uq4 G D w_n59_116# sky130_fd_pr__pfet_01v8 ad=0p pd=0u as=0p ps=0u w=2u l=0.15u
X5 D G S w_n59_116# sky130_fd_pr__pfet_01v8 ad=0p pd=0u as=0p ps=0u w=2u l=0.15u
X6 S_uq1 G D w_n59_116# sky130_fd_pr__pfet_01v8 ad=0p pd=0u as=0p ps=0u w=2u l=0.15u
X7 S G D w_n59_116# sky130_fd_pr__pfet_01v8 ad=0p pd=0u as=0p ps=0u w=2u l=0.15u
X8 D G S_uq3 w_n59_116# sky130_fd_pr__pfet_01v8 ad=0p pd=0u as=0p ps=0u w=2u l=0.15u
X9 D G S_uq2 w_n59_116# sky130_fd_pr__pfet_01v8 ad=0p pd=0u as=0p ps=0u w=2u l=0.15u
X10 D G S_uq0 w_n59_116# sky130_fd_pr__pfet_01v8 ad=0p pd=0u as=0p ps=0u w=2u l=0.15u
X11 S_uq3 G D w_n59_116# sky130_fd_pr__pfet_01v8 ad=0p pd=0u as=0p ps=0u w=2u l=0.15u
X12 S_uq2 G D w_n59_116# sky130_fd_pr__pfet_01v8 ad=0p pd=0u as=0p ps=0u w=2u l=0.15u
.ends

.subckt pinv_12 A Z vdd gnd
Xnmos_m13_w2_000_sli_dli_da_p_0 A gnd Z gnd gnd gnd gnd gnd gnd gnd nmos_m13_w2_000_sli_dli_da_p
Xpmos_m13_w2_000_sli_dli_da_p_0 A vdd Z vdd vdd vdd vdd vdd vdd gnd vdd pmos_m13_w2_000_sli_dli_da_p
.ends

.subckt pdriver_6 A Z vdd gnd
Xpinv_5_0 pinv_5_0/A pinv_6_0/A vdd gnd pinv_5
Xpinv_6_0 pinv_6_0/A pinv_6_0/Z vdd gnd pinv_6
Xpinv_12_0 pinv_6_0/Z Z vdd gnd pinv_12
Xpinv_4_0 A pinv_5_0/A vdd gnd pinv_4
.ends

.subckt dff_buf_array_0 din_0 dout_0 dout_bar_0 clk vdd gnd
Xdff_buf_0_0 din_0 dout_0 dout_bar_0 clk vdd gnd dff_buf_0
.ends

.subckt control_logic_r csb clk rbl_bl s_en p_en_bar wl_en clk_buf vdd gnd vdd_uq0
+ vdd_uq3 vdd_uq5 vdd_uq7 vdd_uq9 vdd_uq10 vdd_uq11 vdd_uq12
Xpand3_0_0 pand3_0_0/A pand3_0_0/B pand3_0_0/C s_en vdd_uq11 gnd pand3_0
Xpdriver_5_0 pnand2_1_0/Z p_en_bar vdd_uq12 gnd pdriver_5
Xpand2_0_0 clk_buf pand3_0_0/C pand2_0_0/Z vdd_uq11 gnd pand2_0
Xpand2_0_1 pinv_10_0/Z pand3_0_0/C pand3_0_0/B vdd_uq10 gnd pand2_0
Xdelay_chain_0 rbl_bl pand3_0_0/A vdd_uq9 gnd vdd_uq7 vdd_uq5 vdd_uq3 vdd delay_chain
Xpdriver_6_0 clk clk_buf vdd_uq10 gnd pdriver_6
Xdff_buf_array_0_0 csb dff_buf_array_0_0/dout_0 pand3_0_0/C clk_buf vdd_uq0 gnd dff_buf_array_0
Xpinv_10_0 clk_buf pinv_10_0/Z vdd_uq10 gnd pinv_10
Xpnand2_1_0 pand2_0_0/Z pand3_0_0/A pnand2_1_0/Z vdd_uq12 gnd pnand2_1
Xpdriver_2_0 pand3_0_0/B wl_en vdd_uq12 gnd pdriver_2
.ends

.subckt row_addr_dff din_0 din_1 din_2 din_3 dout_0 dout_1 dout_2 dout_3 clk vdd gnd
+ vdd_uq0
Xsky130_fd_bd_sram__openram_dff_0 din_3 dout_3 gnd clk vdd sky130_fd_bd_sram__openram_dff_0/QN
+ sky130_fd_bd_sram__openram_dff
Xsky130_fd_bd_sram__openram_dff_1 din_2 dout_2 gnd clk vdd sky130_fd_bd_sram__openram_dff_1/QN
+ sky130_fd_bd_sram__openram_dff
Xsky130_fd_bd_sram__openram_dff_2 din_1 dout_1 gnd clk vdd_uq0 sky130_fd_bd_sram__openram_dff_2/QN
+ sky130_fd_bd_sram__openram_dff
Xsky130_fd_bd_sram__openram_dff_3 din_0 dout_0 gnd clk vdd_uq0 sky130_fd_bd_sram__openram_dff_3/QN
+ sky130_fd_bd_sram__openram_dff
.ends

.subckt sky130_fd_bd_sram__openram_sense_amp bl br dout en vdd vdd_uq0 gnd
X0 a_154_1298# a_96_1689# vdd vdd sky130_fd_pr__pfet_01v8 ad=0p pd=0u as=0p ps=0u w=1.26u l=0.15u
X1 gnd en a_184_1689# gnd sky130_fd_pr__nfet_01v8 ad=0p pd=0u as=0p ps=0u w=0.65u l=0.15u
X2 a_154_1298# a_96_1689# a_184_1689# gnd sky130_fd_pr__nfet_01v8 ad=0p pd=0u as=0p ps=0u w=0.65u l=0.15u
X3 gnd a_154_1298# dout gnd sky130_fd_pr__nfet_01v8 ad=0p pd=0u as=0p ps=0u w=0.65u l=0.15u
X4 bl en a_96_1689# vdd sky130_fd_pr__pfet_01v8 ad=0p pd=0u as=0p ps=0u w=2u l=0.15u
X5 a_154_1298# en br vdd sky130_fd_pr__pfet_01v8 ad=0p pd=0u as=0p ps=0u w=2u l=0.15u
X6 vdd a_154_1298# a_96_1689# vdd sky130_fd_pr__pfet_01v8 ad=0p pd=0u as=0p ps=0u w=1.26u l=0.15u
X7 a_184_1689# a_154_1298# a_96_1689# gnd sky130_fd_pr__nfet_01v8 ad=0p pd=0u as=0p ps=0u w=0.65u l=0.15u
X8 vdd_uq0 a_154_1298# dout vdd sky130_fd_pr__pfet_01v8 ad=0p pd=0u as=0p ps=0u w=1.26u l=0.15u
.ends

.subckt sense_amp_array data_0 bl_0 br_0 data_1 bl_1 br_1 data_2 bl_2 br_2 data_3
+ bl_3 br_3 data_4 bl_4 br_4 data_5 bl_5 br_5 data_6 bl_6 br_6 data_7 bl_7 br_7 en
+ vdd gnd vdd_uq0 vdd_uq1 vdd_uq2 vdd_uq3 vdd_uq4 vdd_uq5 vdd_uq6 vdd_uq9
Xsky130_fd_bd_sram__openram_sense_amp_5 bl_2 br_2 data_2 en vdd_uq9 vdd_uq4 gnd sky130_fd_bd_sram__openram_sense_amp
Xsky130_fd_bd_sram__openram_sense_amp_6 bl_1 br_1 data_1 en vdd_uq9 vdd_uq5 gnd sky130_fd_bd_sram__openram_sense_amp
Xsky130_fd_bd_sram__openram_sense_amp_7 bl_0 br_0 data_0 en vdd_uq9 vdd_uq6 gnd sky130_fd_bd_sram__openram_sense_amp
Xsky130_fd_bd_sram__openram_sense_amp_0 bl_7 br_7 data_7 en vdd_uq9 vdd_uq0 gnd sky130_fd_bd_sram__openram_sense_amp
Xsky130_fd_bd_sram__openram_sense_amp_1 bl_6 br_6 data_6 en vdd_uq9 vdd gnd sky130_fd_bd_sram__openram_sense_amp
Xsky130_fd_bd_sram__openram_sense_amp_2 bl_5 br_5 data_5 en vdd_uq9 vdd_uq1 gnd sky130_fd_bd_sram__openram_sense_amp
Xsky130_fd_bd_sram__openram_sense_amp_3 bl_4 br_4 data_4 en vdd_uq9 vdd_uq2 gnd sky130_fd_bd_sram__openram_sense_amp
Xsky130_fd_bd_sram__openram_sense_amp_4 bl_3 br_3 data_3 en vdd_uq9 vdd_uq3 gnd sky130_fd_bd_sram__openram_sense_amp
.ends

.subckt pmos_m1_w0_550_sli_dli G S D gnd w_n59_n29#
X0 D G S w_n59_n29# sky130_fd_pr__pfet_01v8 ad=0p pd=0u as=0p ps=0u w=0.55u l=0.15u
.ends

.subckt precharge_1 bl br en_bar vdd gnd
Xpmos_m1_w0_550_sli_dli_0 en_bar vdd br gnd vdd pmos_m1_w0_550_sli_dli
Xpmos_m1_w0_550_sli_dli_1 en_bar bl vdd gnd vdd pmos_m1_w0_550_sli_dli
Xpmos_m1_w0_550_sli_dli_2 en_bar bl br gnd vdd pmos_m1_w0_550_sli_dli
.ends

.subckt precharge_array_0 bl_0 br_0 bl_1 br_1 bl_2 br_2 bl_3 br_3 bl_4 br_4 bl_5 br_5
+ bl_6 br_6 bl_7 br_7 bl_8 br_8 en_bar vdd gnd
Xprecharge_1_0 bl_8 br_8 en_bar vdd gnd precharge_1
Xprecharge_1_1 bl_7 br_7 en_bar vdd gnd precharge_1
Xprecharge_1_2 bl_6 br_6 en_bar vdd gnd precharge_1
Xprecharge_1_3 bl_5 br_5 en_bar vdd gnd precharge_1
Xprecharge_1_4 bl_4 br_4 en_bar vdd gnd precharge_1
Xprecharge_1_5 bl_3 br_3 en_bar vdd gnd precharge_1
Xprecharge_1_6 bl_2 br_2 en_bar vdd gnd precharge_1
Xprecharge_1_7 bl_1 br_1 en_bar vdd gnd precharge_1
Xprecharge_1_8 bl_0 br_0 en_bar vdd gnd precharge_1
.ends

.subckt port_data_0 rbl_bl rbl_br bl_0 br_0 bl_1 br_1 bl_2 br_2 bl_3 br_3 bl_4 br_4
+ bl_5 br_5 bl_6 br_6 bl_7 br_7 dout_0 dout_1 dout_2 dout_3 dout_4 dout_5 dout_6 dout_7
+ s_en p_en_bar vdd gnd vdd_uq9 vdd_uq16 vdd_uq17 vdd_uq18 vdd_uq19 vdd_uq20 vdd_uq21
+ vdd_uq22 vdd_uq23
Xsense_amp_array_0 dout_0 bl_0 br_0 dout_1 bl_1 br_1 dout_2 bl_2 br_2 dout_3 bl_3